<?xml version="1.0" encoding="UTF-8"?>

<!-- generated on 03/12/20 11:12:36 by Eclipse SUMO netedit Version 1.5.0
<configuration xmlns:xsi="http://www.w3.org/2001/XMLSchema-instance" xsi:noNamespaceSchemaLocation="http://sumo.dlr.de/xsd/netconvertConfiguration.xsd">

    <input>
        <sumo-net-file value="D:\Masterarbeit\SUMO\2020-03-11\Netz_V12_T40.net.xml"/>
    </input>

    <output>
        <output-file value="D:\Masterarbeit\SUMO\2020-03-11\Netz_V12_T40.net.xml"/>
        <output.street-names value="true"/>
    </output>

    <processing>
        <geometry.min-radius.fix.railways value="false"/>
        <geometry.max-grade.fix value="false"/>
        <offset.disable-normalization value="true"/>
        <lefthand value="false"/>
    </processing>

    <junctions>
        <no-internal-links value="false"/>
        <no-turnarounds value="true"/>
        <junctions.corner-detail value="5"/>
        <junctions.limit-turn-speed value="5.5"/>
        <rectangular-lane-cut value="false"/>
    </junctions>

    <pedestrian>
        <walkingareas value="true"/>
    </pedestrian>

    <report>
        <aggregate-warnings value="5"/>
    </report>

</configuration>
-->

<net version="1.3" junctionCornerDetail="5" walkingareas="true" limitTurnSpeed="5.50" xmlns:xsi="http://www.w3.org/2001/XMLSchema-instance" xsi:noNamespaceSchemaLocation="http://sumo.dlr.de/xsd/net_file.xsd">

    <location netOffset="-389324.06,-5817704.36" convBoundary="605.38,768.16,2725.21,1996.68" origBoundary="13.369053,52.498270,13.412727,52.519505" projParameter="+proj=utm +zone=33 +ellps=WGS84 +datum=WGS84 +units=m +no_defs"/>

    <type id="cycleway.lane" allow="bicycle" bikeLaneWidth="1.00"/>
    <type id="cycleway.lane|highway.primary" priority="12" numLanes="2" speed="13.89" disallow="pedestrian tram rail_urban rail rail_electric rail_fast ship" oneway="0" sidewalkWidth="3.00" bikeLaneWidth="1.00"/>
    <type id="cycleway.lane|highway.secondary" priority="11" numLanes="1" speed="13.89" disallow="pedestrian tram rail_urban rail rail_electric rail_fast ship" oneway="0" sidewalkWidth="3.00" bikeLaneWidth="1.00"/>
    <type id="cycleway.lane|highway.tertiary" priority="10" numLanes="1" speed="13.89" disallow="pedestrian tram rail_urban rail rail_electric rail_fast ship" oneway="0" sidewalkWidth="3.00" bikeLaneWidth="1.00"/>
    <type id="cycleway.opposite_lane" allow="bicycle" bikeLaneWidth="1.00"/>
    <type id="cycleway.opposite_lane|highway.tertiary" priority="10" numLanes="1" speed="13.89" disallow="pedestrian tram rail_urban rail rail_electric rail_fast ship" oneway="0" sidewalkWidth="3.00" bikeLaneWidth="1.00"/>
    <type id="cycleway.opposite_track" allow="bicycle" bikeLaneWidth="1.50"/>
    <type id="cycleway.track" allow="bicycle" bikeLaneWidth="1.50"/>
    <type id="cycleway.track|highway.primary" priority="12" numLanes="2" speed="13.89" disallow="pedestrian tram rail_urban rail rail_electric rail_fast ship" oneway="0" sidewalkWidth="3.00" bikeLaneWidth="1.50"/>
    <type id="cycleway.track|highway.secondary" priority="11" numLanes="1" speed="13.89" disallow="pedestrian tram rail_urban rail rail_electric rail_fast ship" oneway="0" sidewalkWidth="3.00" bikeLaneWidth="1.50"/>
    <type id="highway.bridleway" priority="1" numLanes="1" speed="2.78" allow="pedestrian" oneway="1" width="2.00"/>
    <type id="highway.bus_guideway" priority="1" numLanes="1" speed="13.89" allow="bus" oneway="1"/>
    <type id="highway.cycleway" priority="1" numLanes="1" speed="8.33" allow="bicycle" oneway="0" width="1.00"/>
    <type id="highway.footway" priority="1" numLanes="1" speed="2.78" allow="pedestrian" oneway="1" width="2.00"/>
    <type id="highway.ford" priority="1" numLanes="1" speed="2.78" allow="army" oneway="0"/>
    <type id="highway.living_street" priority="2" numLanes="1" speed="2.78" disallow="tram rail_urban rail rail_electric rail_fast ship" oneway="0"/>
    <type id="highway.motorway" priority="14" numLanes="2" speed="27.78" allow="private emergency authority army vip passenger hov taxi bus coach delivery truck trailer motorcycle evehicle custom1 custom2" oneway="1"/>
    <type id="highway.motorway_link" priority="9" numLanes="1" speed="16.67" allow="private emergency authority army vip passenger hov taxi bus coach delivery truck trailer motorcycle evehicle custom1 custom2" oneway="1"/>
    <type id="highway.path" priority="1" numLanes="1" speed="2.78" allow="pedestrian bicycle" oneway="1" width="2.00"/>
    <type id="highway.pedestrian" priority="1" numLanes="1" speed="2.78" allow="pedestrian" oneway="1" width="2.00"/>
    <type id="highway.primary" priority="12" numLanes="2" speed="13.89" disallow="pedestrian tram rail_urban rail rail_electric rail_fast ship" oneway="0" sidewalkWidth="3.00"/>
    <type id="highway.primary_link" priority="7" numLanes="1" speed="13.89" disallow="pedestrian tram rail_urban rail rail_electric rail_fast ship" oneway="0" sidewalkWidth="3.00"/>
    <type id="highway.raceway" priority="15" numLanes="2" speed="83.33" allow="vip" oneway="0"/>
    <type id="highway.residential" priority="3" numLanes="1" speed="13.89" disallow="pedestrian tram rail_urban rail rail_electric rail_fast ship" oneway="0" sidewalkWidth="2.00"/>
    <type id="highway.secondary" priority="11" numLanes="1" speed="13.89" disallow="pedestrian tram rail_urban rail rail_electric rail_fast ship" oneway="0" sidewalkWidth="3.00"/>
    <type id="highway.secondary_link" priority="6" numLanes="1" speed="13.89" disallow="pedestrian tram rail_urban rail rail_electric rail_fast ship" oneway="0" sidewalkWidth="3.00"/>
    <type id="highway.service" priority="1" numLanes="1" speed="5.56" allow="pedestrian delivery bicycle" oneway="0"/>
    <type id="highway.stairs" priority="1" numLanes="1" speed="1.39" allow="pedestrian" oneway="1" width="2.00"/>
    <type id="highway.step" priority="1" numLanes="1" speed="1.39" allow="pedestrian" oneway="1" width="2.00"/>
    <type id="highway.steps" priority="1" numLanes="1" speed="1.39" allow="pedestrian" oneway="1" width="2.00"/>
    <type id="highway.tertiary" priority="10" numLanes="1" speed="13.89" disallow="pedestrian tram rail_urban rail rail_electric rail_fast ship" oneway="0" sidewalkWidth="3.00"/>
    <type id="highway.tertiary_link" priority="5" numLanes="1" speed="13.89" disallow="pedestrian tram rail_urban rail rail_electric rail_fast ship" oneway="0" sidewalkWidth="2.00"/>
    <type id="highway.track" priority="1" numLanes="1" speed="5.56" disallow="tram rail_urban rail rail_electric rail_fast ship" oneway="0"/>
    <type id="highway.trunk" priority="13" numLanes="2" speed="13.89" disallow="pedestrian bicycle tram rail_urban rail rail_electric rail_fast ship" oneway="0"/>
    <type id="highway.trunk_link" priority="8" numLanes="1" speed="13.89" disallow="pedestrian bicycle tram rail_urban rail rail_electric rail_fast ship" oneway="0"/>
    <type id="highway.unclassified" priority="4" numLanes="1" speed="13.89" disallow="pedestrian tram rail_urban rail rail_electric rail_fast ship" oneway="0" sidewalkWidth="2.00"/>
    <type id="highway.unsurfaced" priority="1" numLanes="1" speed="8.33" disallow="tram rail_urban rail rail_electric rail_fast ship" oneway="0"/>
    <type id="railway.highspeed" priority="21" numLanes="1" speed="69.44" allow="rail_fast" oneway="1"/>
    <type id="railway.light_rail" priority="19" numLanes="1" speed="27.78" allow="rail_urban" oneway="1"/>
    <type id="railway.preserved" priority="16" numLanes="1" speed="27.78" allow="rail" oneway="1"/>
    <type id="railway.rail" priority="20" numLanes="1" speed="44.44" allow="rail" oneway="1"/>
    <type id="railway.subway" priority="18" numLanes="1" speed="27.78" allow="rail_urban" oneway="1"/>
    <type id="railway.tram" priority="17" numLanes="1" speed="13.89" allow="tram" oneway="1"/>

    <edge id=":1041979358_w0" function="walkingarea">
        <lane id=":1041979358_w0_0" index="0" allow="pedestrian" speed="1.00" length="14.00" width="2.00" shape="1510.13,1738.24 1508.13,1738.13 1524.11,1738.97 1522.11,1738.86"/>
    </edge>
    <edge id=":1141824924_0" function="internal">
        <lane id=":1141824924_0_0" index="0" allow="bus bicycle" speed="11.11" length="14.60" shape="1570.44,1331.01 1573.83,1332.87 1576.43,1333.56 1579.22,1333.68 1583.19,1333.86"/>
        <lane id=":1141824924_0_1" index="1" disallow="pedestrian tram rail_urban rail rail_electric rail_fast ship" speed="11.11" length="14.60" shape="1570.44,1331.01 1573.88,1333.45 1576.27,1335.22 1578.88,1336.39 1582.92,1337.05"/>
        <lane id=":1141824924_0_2" index="2" disallow="pedestrian tram rail_urban rail rail_electric rail_fast ship" speed="11.11" length="14.60" width="3.00" shape="1569.41,1334.27 1573.04,1336.76 1575.61,1338.45 1578.40,1339.52 1582.66,1340.14"/>
        <lane id=":1141824924_0_3" index="3" disallow="pedestrian tram rail_urban rail rail_electric rail_fast ship" speed="11.11" length="14.60" width="3.00" shape="1569.41,1334.27 1573.13,1337.36 1575.45,1340.05 1578.00,1342.06 1582.41,1343.13"/>
    </edge>
    <edge id=":1141824924_w0" function="walkingarea">
        <lane id=":1141824924_w0_0" index="0" allow="pedestrian" speed="1.00" length="12.38" width="3.00" shape="1583.33,1332.27 1583.58,1329.28 1572.23,1326.63 1570.60,1329.15 1573.59,1330.94 1575.38,1331.67 1576.97,1332.00 1578.64,1332.09 1580.67,1332.12"/>
    </edge>
    <edge id=":1602223935_0" function="internal">
        <lane id=":1602223935_0_0" index="0" disallow="pedestrian tram rail_urban rail rail_electric rail_fast ship" speed="8.33" length="8.17" shape="1665.39,1426.71 1664.99,1429.08 1664.39,1430.65 1663.78,1432.21 1663.37,1434.59"/>
    </edge>
    <edge id=":1602223935_1" function="internal">
        <lane id=":1602223935_1_0" index="0" disallow="pedestrian tram rail_urban rail rail_electric rail_fast ship" speed="8.33" length="8.32" width="3.00" shape="1660.18,1434.33 1659.93,1431.86 1659.06,1430.24 1658.18,1428.62 1657.91,1426.15"/>
        <lane id=":1602223935_1_1" index="1" disallow="pedestrian tram rail_urban rail rail_electric rail_fast ship" speed="8.33" length="8.32" width="3.00" shape="1660.18,1434.33 1660.90,1426.37"/>
    </edge>
    <edge id=":1602223935_w0" function="walkingarea">
        <lane id=":1602223935_w0_0" index="0" allow="pedestrian" speed="1.00" length="8.51" width="2.00" shape="1664.97,1434.71 1666.96,1434.88 1670.38,1427.08 1668.38,1426.93 1668.04,1428.68 1667.43,1429.89 1666.68,1430.82 1665.93,1431.76 1665.32,1432.96"/>
    </edge>
    <edge id=":1602223935_w1" function="walkingarea">
        <lane id=":1602223935_w1_0" index="0" allow="pedestrian" speed="1.00" length="8.44" width="2.00" shape="1656.42,1426.03 1654.42,1425.89 1656.59,1434.04 1658.59,1434.20 1658.52,1432.42 1658.11,1431.15 1657.51,1430.12 1656.91,1429.09 1656.49,1427.81"/>
    </edge>
    <edge id=":1602766781_0" function="internal">
        <lane id=":1602766781_0_0" index="0" disallow="pedestrian tram rail_urban rail rail_electric rail_fast ship" speed="8.33" length="3.25" width="5.37" shape="1545.60,1255.52 1545.70,1256.45 1546.03,1257.06 1546.35,1257.67 1546.44,1258.60"/>
    </edge>
    <edge id=":1602766781_1" function="internal">
        <lane id=":1602766781_1_0" index="0" disallow="pedestrian tram rail_urban rail rail_electric rail_fast ship" speed="8.33" length="3.27" shape="1541.04,1258.16 1541.29,1257.26 1541.73,1256.71 1542.16,1256.17 1542.41,1255.27"/>
    </edge>
    <edge id=":1602766781_w0" function="walkingarea">
        <lane id=":1602766781_w0_0" index="0" allow="pedestrian" speed="1.00" length="3.71" width="2.00" shape="1549.12,1258.82 1551.11,1258.98 1549.19,1255.81 1547.20,1255.65"/>
    </edge>
    <edge id=":1602766781_w1" function="walkingarea">
        <lane id=":1602766781_w1_0" index="0" allow="pedestrian" speed="1.00" length="3.76" width="2.00" shape="1540.82,1255.14 1538.83,1254.98 1536.32,1257.78 1538.32,1257.94"/>
    </edge>
    <edge id=":1818648896_0" function="internal">
        <lane id=":1818648896_0_0" index="0" disallow="pedestrian tram rail_urban rail rail_electric rail_fast ship" speed="11.11" length="7.87" width="3.40" shape="1363.57,1318.66 1355.79,1317.75"/>
        <lane id=":1818648896_0_1" index="1" disallow="pedestrian tram rail_urban rail rail_electric rail_fast ship" speed="11.11" length="7.87" width="3.00" shape="1363.88,1315.30 1356.00,1314.55"/>
    </edge>
    <edge id=":1818648896_2" function="internal">
        <lane id=":1818648896_2_0" index="0" disallow="pedestrian tram rail_urban rail rail_electric rail_fast ship" speed="11.11" length="8.51" width="3.50" shape="1356.43,1308.07 1358.95,1307.77 1360.60,1306.85 1362.24,1305.96 1364.75,1305.71"/>
        <lane id=":1818648896_2_1" index="1" disallow="pedestrian tram rail_urban rail rail_electric rail_fast ship" speed="11.11" length="8.51" width="3.25" shape="1356.21,1311.44 1358.70,1311.13 1360.33,1310.22 1361.96,1309.32 1364.45,1309.08"/>
        <lane id=":1818648896_2_2" index="2" disallow="pedestrian tram rail_urban rail rail_electric rail_fast ship" speed="11.11" length="8.51" width="3.00" shape="1356.21,1311.44 1364.16,1312.19"/>
    </edge>
    <edge id=":1818648896_w0" function="walkingarea">
        <lane id=":1818648896_w0_0" index="0" allow="pedestrian" speed="1.00" length="7.76" width="3.00" shape="1355.68,1319.44 1355.48,1322.44 1363.14,1323.39 1363.41,1320.40"/>
    </edge>
    <edge id=":1818648896_w1" function="walkingarea">
        <lane id=":1818648896_w1_0" index="0" allow="pedestrian" speed="1.00" length="8.72" width="3.00" shape="1364.91,1303.97 1365.18,1300.98 1356.75,1303.33 1356.55,1306.32 1358.37,1306.22 1359.68,1305.75 1360.73,1305.11 1361.78,1304.47 1363.09,1304.03"/>
    </edge>
    <edge id=":21487284_0" function="internal">
        <lane id=":21487284_0_0" index="0" disallow="pedestrian tram rail_urban rail rail_electric rail_fast ship" speed="7.43" length="12.04" width="3.20" shape="2221.52,1397.29 2219.42,1400.93 2218.52,1403.94 2218.81,1406.32 2220.29,1408.07"/>
    </edge>
    <edge id=":21487284_1" function="internal">
        <lane id=":21487284_1_0" index="0" disallow="pedestrian tram rail_urban rail rail_electric rail_fast ship" speed="8.21" length="14.93" shape="2221.52,1397.29 2218.64,1402.09 2217.16,1405.92 2217.11,1408.80 2218.47,1410.71"/>
    </edge>
    <edge id=":21487284_2" function="internal">
        <lane id=":21487284_2_0" index="0" allow="bicycle" speed="13.89" length="12.11" width="3.50" shape="2210.39,1400.49 2214.07,1401.67 2216.75,1402.14 2219.30,1402.84 2222.62,1404.70"/>
        <lane id=":21487284_2_1" index="1" allow="bus bicycle" speed="13.89" length="12.11" width="3.50" shape="2209.38,1402.94 2213.17,1403.84 2216.03,1403.67 2218.77,1403.73 2222.19,1405.32"/>
        <lane id=":21487284_2_2" index="2" disallow="pedestrian tram rail_urban rail rail_electric rail_fast ship" speed="13.89" length="12.11" width="3.20" shape="2209.38,1402.94 2212.74,1404.23 2215.06,1405.08 2217.27,1406.15 2220.29,1408.07"/>
        <lane id=":21487284_2_3" index="3" disallow="pedestrian tram rail_urban rail rail_electric rail_fast ship" speed="13.89" length="12.11" shape="2208.14,1405.94 2211.32,1407.15 2213.52,1407.93 2215.62,1408.90 2218.47,1410.71"/>
        <lane id=":21487284_2_4" index="4" disallow="pedestrian tram rail_urban rail rail_electric rail_fast ship" speed="13.89" length="12.11" shape="2206.92,1408.90 2209.91,1410.03 2211.99,1410.75 2213.97,1411.65 2216.65,1413.34"/>
    </edge>
    <edge id=":21487284_w0" function="walkingarea">
        <lane id=":21487284_w0_0" index="0" allow="pedestrian" speed="1.00" length="3.91" width="3.00" shape="2223.18,1403.88 2224.89,1401.41 2224.50,1399.32 2222.85,1398.19 2222.15,1399.38 2221.76,1400.47 2221.67,1401.47 2221.87,1402.37 2222.38,1403.17"/>
    </edge>
    <edge id=":21487284_w1" function="walkingarea">
        <lane id=":21487284_w1_0" index="0" allow="pedestrian" speed="1.00" length="6.72" width="3.20" shape="2217.56,1394.59 2215.91,1393.46 2211.99,1396.60 2210.77,1399.56 2211.69,1399.73 2212.70,1399.50 2213.79,1398.87 2214.97,1397.84 2216.22,1396.41"/>
    </edge>
    <edge id=":21487284_w2" function="walkingarea">
        <lane id=":21487284_w2_0" index="0" allow="pedestrian" speed="1.00" length="0.10" width="3.30" shape="2210.01,1401.41 2208.75,1404.47 2208.75,1404.47 2207.53,1407.42 2207.53,1407.42 2206.32,1410.38 2213.72,1412.44 2213.10,1410.01 2213.15,1407.53 2213.14,1405.16 2212.34,1403.06"/>
    </edge>
    <edge id=":2303521653_0" function="internal">
        <lane id=":2303521653_0_0" index="0" disallow="pedestrian tram rail_urban rail rail_electric rail_fast ship" speed="13.89" length="0.19" shape="1415.94,1251.82 1415.94,1252.01"/>
    </edge>
    <edge id=":2303521653_w0" function="walkingarea">
        <lane id=":2303521653_w0_0" index="0" allow="pedestrian" speed="1.00" length="0.33" width="3.00" shape="1417.53,1252.09 1420.53,1252.25 1420.54,1251.86 1417.54,1251.83"/>
    </edge>
    <edge id=":25662041_c0" function="crossing" crossingEdges="in_mauerN out_mauerN">
        <lane id=":25662041_c0_0" index="0" allow="pedestrian" speed="1.00" length="12.00" width="4.00" shape="1183.47,1679.88 1195.47,1680.20"/>
    </edge>
    <edge id=":25662041_w0" function="walkingarea">
        <lane id=":25662041_w0_0" index="0" allow="pedestrian" speed="1.00" length="2.50" width="4.00" shape="1183.42,1681.88 1183.52,1677.88 1180.52,1677.80"/>
    </edge>
    <edge id=":25662041_w1" function="walkingarea">
        <lane id=":25662041_w1_0" index="0" allow="pedestrian" speed="1.00" length="2.50" width="4.00" shape="1198.52,1678.28 1195.52,1678.20 1195.41,1682.20"/>
    </edge>
    <edge id=":25663154_0" function="internal">
        <lane id=":25663154_0_0" index="0" disallow="pedestrian tram rail_urban rail rail_electric rail_fast ship" speed="13.89" length="5.51" shape="1402.42,1409.73 1401.69,1411.18 1401.32,1412.24 1401.13,1413.36 1400.98,1414.98"/>
    </edge>
    <edge id=":25663154_1" function="internal">
        <lane id=":25663154_1_0" index="0" disallow="pedestrian tram rail_urban rail rail_electric rail_fast ship" speed="12.11" length="5.09" shape="1397.79,1414.68 1397.91,1413.18 1397.88,1412.14 1397.64,1411.12 1397.13,1409.71"/>
    </edge>
    <edge id=":25663154_w0" function="walkingarea">
        <lane id=":25663154_w0_0" index="0" allow="pedestrian" speed="1.00" length="4.23" width="3.00" shape="1402.57,1415.14 1405.56,1415.42 1406.48,1411.91 1403.83,1410.49 1403.36,1411.40 1403.05,1412.10 1402.86,1412.71 1402.75,1413.34 1402.66,1414.11"/>
    </edge>
    <edge id=":25663154_w1" function="walkingarea">
        <lane id=":25663154_w1_0" index="0" allow="pedestrian" speed="1.00" length="3.60" width="3.00" shape="1395.63,1410.28 1392.82,1411.34 1393.21,1414.24 1396.20,1414.52 1396.28,1413.61 1396.31,1412.92 1396.28,1412.35 1396.16,1411.79 1395.95,1411.14"/>
    </edge>
    <edge id=":25663409_c0" function="crossing" crossingEdges="in_friedrichS out_friedrichS">
        <lane id=":25663409_c0_0" index="0" allow="pedestrian" speed="1.00" length="6.40" width="4.00" shape="1450.10,909.86 1443.73,909.20"/>
    </edge>
    <edge id=":25663409_w0" function="walkingarea">
        <lane id=":25663409_w0_0" index="0" allow="pedestrian" speed="1.00" length="2.50" width="4.00" shape="1450.31,907.87 1449.89,911.85 1452.88,912.16"/>
    </edge>
    <edge id=":25663409_w1" function="walkingarea">
        <lane id=":25663409_w1_0" index="0" allow="pedestrian" speed="1.00" length="2.50" width="4.00" shape="1440.54,910.88 1443.53,911.19 1443.94,907.21"/>
    </edge>
    <edge id=":25663440_w0" function="walkingarea">
        <lane id=":25663440_w0_0" index="0" allow="pedestrian" speed="1.00" length="8.40" width="2.00" shape="1573.85,922.70 1575.84,922.85 1565.48,922.03 1567.47,922.18"/>
    </edge>
    <edge id=":25663735_c0" function="crossing" crossingEdges="in_mauerS out_mauerS">
        <lane id=":25663735_c0_0" index="0" allow="pedestrian" speed="1.00" length="12.00" width="4.00" shape="1418.86,866.57 1407.71,862.15"/>
    </edge>
    <edge id=":25663735_w0" function="walkingarea">
        <lane id=":25663735_w0_0" index="0" allow="pedestrian" speed="1.00" length="2.24" width="4.00" shape="1419.60,864.71 1418.13,868.43 1419.99,869.17"/>
    </edge>
    <edge id=":25663735_w1" function="walkingarea">
        <lane id=":25663735_w1_0" index="0" allow="pedestrian" speed="1.00" length="2.24" width="4.00" shape="1405.11,863.27 1406.97,864.01 1408.44,860.29"/>
    </edge>
    <edge id=":283039346_w0" function="walkingarea">
        <lane id=":283039346_w0_0" index="0" allow="pedestrian" speed="1.00" length="8.40" width="2.00" shape="1636.00,1712.88 1634.01,1712.72 1644.37,1713.56 1642.38,1713.40"/>
    </edge>
    <edge id=":29207828_0" function="internal">
        <lane id=":29207828_0_0" index="0" allow="bus bicycle" speed="11.11" length="13.42" width="4.50" shape="1877.17,1378.67 1863.79,1377.70"/>
        <lane id=":29207828_0_1" index="1" disallow="pedestrian bus tram rail_urban rail rail_electric rail_fast ship" speed="11.11" length="13.42" shape="1877.45,1374.83 1864.07,1373.86"/>
        <lane id=":29207828_0_2" index="2" disallow="pedestrian bus tram rail_urban rail rail_electric rail_fast ship" speed="11.11" length="13.42" shape="1877.69,1371.64 1864.30,1370.67"/>
    </edge>
    <edge id=":29207828_3" function="internal">
        <lane id=":29207828_3_0" index="0" allow="bus bicycle" speed="6.71" length="9.63" width="4.50" shape="1868.40,1384.85 1868.28,1381.86 1867.48,1379.67 1865.98,1378.28 1863.79,1377.70"/>
    </edge>
    <edge id=":29207828_4" function="internal">
        <lane id=":29207828_4_0" index="0" disallow="pedestrian bus tram rail_urban rail rail_electric rail_fast ship" speed="7.70" length="13.00" shape="1868.40,1384.85 1868.40,1380.17 1867.67,1376.79 1866.23,1374.68 1864.07,1373.86"/>
    </edge>
    <edge id=":29207828_w0" function="walkingarea">
        <lane id=":29207828_w0_0" index="0" allow="pedestrian" speed="1.00" length="3.90" width="3.00" shape="1873.19,1385.16 1875.19,1385.30 1876.78,1383.91 1877.00,1380.92 1875.92,1380.96 1875.02,1381.27 1874.29,1381.85 1873.75,1382.69 1873.38,1383.79"/>
    </edge>
    <edge id=":29207828_w1" function="walkingarea">
        <lane id=":29207828_w1_0" index="0" allow="pedestrian" speed="1.00" length="3.96" width="3.00" shape="1863.63,1379.94 1863.42,1382.94 1864.81,1384.61 1866.81,1384.74 1866.80,1383.34 1866.59,1382.19 1866.16,1381.27 1865.53,1380.59 1864.69,1380.15"/>
    </edge>
    <edge id=":29207830_0" function="internal">
        <lane id=":29207830_0_0" index="0" allow="bicycle" speed="13.89" length="7.91" width="1.85" shape="2210.42,1429.88 2208.57,1428.82 2207.16,1428.35 2205.72,1427.92 2203.76,1427.02"/>
        <lane id=":29207830_0_1" index="1" disallow="pedestrian bicycle tram rail_urban rail rail_electric rail_fast ship" speed="13.89" length="7.91" shape="2211.91,1427.72 2209.98,1426.63 2208.52,1426.16 2207.02,1425.74 2204.99,1424.82"/>
        <lane id=":29207830_0_2" index="2" disallow="pedestrian bicycle tram rail_urban rail rail_electric rail_fast ship" speed="13.89" length="7.91" shape="2213.86,1424.87 2211.83,1423.76 2210.27,1423.33 2208.68,1422.96 2206.55,1422.02"/>
        <lane id=":29207830_0_3" index="3" allow="bus" speed="13.89" length="7.91" width="3.25" shape="2213.86,1424.87 2212.05,1423.30 2211.06,1421.92 2210.03,1420.60 2208.12,1419.20"/>
        <lane id=":29207830_0_4" index="4" allow="bus" speed="13.89" length="7.91" width="3.25" shape="2215.85,1421.96 2213.72,1420.84 2212.06,1420.46 2210.36,1420.15 2208.12,1419.20"/>
        <lane id=":29207830_0_5" index="5" disallow="pedestrian bicycle tram rail_urban rail rail_electric rail_fast ship" speed="13.89" length="7.91" width="3.00" shape="2215.85,1421.96 2213.94,1420.40 2212.82,1419.10 2211.66,1417.85 2209.64,1416.47"/>
    </edge>
    <edge id=":29207830_w0" function="walkingarea">
        <lane id=":29207830_w0_0" index="0" allow="pedestrian" speed="1.00" length="7.02" width="3.00" shape="2203.31,1427.83 2201.85,1430.45 2208.20,1433.12 2209.90,1430.65 2208.60,1429.86 2207.57,1429.40 2206.67,1429.13 2205.75,1428.88 2204.68,1428.50"/>
    </edge>
    <edge id=":29208248_w0" function="walkingarea">
        <lane id=":29208248_w0_0" index="0" allow="pedestrian" speed="1.00" length="8.40" width="2.00" shape="1976.64,1109.79 1978.64,1109.92 1968.26,1109.24 1970.26,1109.37"/>
    </edge>
    <edge id=":2968729043_0" function="internal">
        <lane id=":2968729043_0_0" index="0" disallow="pedestrian tram rail_urban rail rail_electric rail_fast ship" speed="13.89" length="0.10" shape="1406.24,1254.98 1406.24,1255.06"/>
    </edge>
    <edge id=":2968729043_w0" function="walkingarea">
        <lane id=":2968729043_w0_0" index="0" allow="pedestrian" speed="1.00" length="0.10" width="3.00" shape="1404.64,1254.97 1401.64,1254.82 1401.64,1254.98 1404.64,1254.98"/>
    </edge>
    <edge id=":3097456724_0" function="internal">
        <lane id=":3097456724_0_0" index="0" allow="bicycle" speed="13.89" length="8.21" width="2.00" shape="1003.49,1370.01 1000.78,1377.71"/>
        <lane id=":3097456724_0_1" index="1" disallow="pedestrian tram rail_urban rail rail_electric rail_fast ship" speed="13.89" length="8.21" width="5.80" shape="1001.14,1369.31 1000.19,1371.55 999.15,1372.92 998.08,1374.27 997.07,1376.49"/>
        <lane id=":3097456724_0_2" index="2" disallow="pedestrian tram rail_urban rail rail_electric rail_fast ship" speed="13.89" length="8.21" width="5.80" shape="998.21,1368.45 997.73,1370.81 997.68,1372.48 997.62,1374.16 997.07,1376.49"/>
    </edge>
    <edge id=":3097456724_3" function="internal">
        <lane id=":3097456724_3_0" index="0" allow="bicycle" speed="13.89" length="7.97" width="2.00" shape="987.85,1373.48 989.87,1365.98"/>
        <lane id=":3097456724_3_1" index="1" disallow="pedestrian tram rail_urban rail rail_electric rail_fast ship" speed="13.89" length="7.97" width="2.90" shape="991.56,1374.69 992.03,1372.37 991.93,1370.70 991.81,1369.02 992.22,1366.67"/>
        <lane id=":3097456724_3_2" index="2" disallow="pedestrian tram rail_urban rail rail_electric rail_fast ship" speed="13.89" length="7.97" shape="991.56,1374.69 992.48,1372.51 993.39,1371.13 994.28,1369.74 995.15,1367.54"/>
    </edge>
    <edge id=":3097456724_w0" function="walkingarea">
        <lane id=":3097456724_w0_0" index="0" allow="pedestrian" speed="1.00" length="8.23" width="3.00" shape="1001.73,1378.02 1004.58,1378.95 1007.32,1371.14 1004.45,1370.29"/>
    </edge>
    <edge id=":3097456724_w1" function="walkingarea">
        <lane id=":3097456724_w1_0" index="0" allow="pedestrian" speed="1.00" length="7.70" width="3.00" shape="988.91,1365.69 986.04,1364.84 984.05,1372.24 986.90,1373.17"/>
    </edge>
    <edge id=":3786860485_0" function="internal">
        <lane id=":3786860485_0_0" index="0" allow="bus bicycle" speed="11.11" length="8.75" width="4.50" shape="1718.33,1367.01 1715.93,1367.11 1714.31,1367.62 1712.68,1368.14 1710.28,1368.28"/>
        <lane id=":3786860485_0_1" index="1" allow="bus bicycle" speed="11.11" length="8.75" width="4.00" shape="1718.33,1367.01 1715.94,1366.45 1714.43,1365.50 1712.92,1364.56 1710.53,1364.04"/>
        <lane id=":3786860485_0_2" index="2" disallow="pedestrian bus tram rail_urban rail rail_electric rail_fast ship" speed="11.11" length="8.75" width="4.50" shape="1718.61,1363.17 1715.94,1363.86 1714.45,1365.70 1712.96,1367.55 1710.28,1368.28"/>
        <lane id=":3786860485_0_3" index="3" disallow="pedestrian bus tram rail_urban rail rail_electric rail_fast ship" speed="11.11" length="8.75" width="3.00" shape="1718.61,1363.17 1716.21,1362.66 1714.67,1361.83 1713.12,1361.01 1710.73,1360.55"/>
        <lane id=":3786860485_0_4" index="4" disallow="pedestrian bus tram rail_urban rail rail_electric rail_fast ship" speed="11.11" length="8.75" width="3.00" shape="1718.84,1359.97 1716.44,1359.50 1714.87,1358.74 1713.31,1357.99 1710.90,1357.55"/>
    </edge>
    <edge id=":3786860485_w0" function="walkingarea">
        <lane id=":3786860485_w0_0" index="0" allow="pedestrian" speed="1.00" length="8.10" width="3.00" shape="1710.15,1370.53 1709.98,1373.53 1717.95,1372.24 1718.17,1369.25 1716.45,1369.26 1715.19,1369.50 1714.16,1369.87 1713.13,1370.24 1711.87,1370.50"/>
    </edge>
    <edge id=":3922684620_w0" function="walkingarea">
        <lane id=":3922684620_w0_0" index="0" allow="pedestrian" speed="1.00" length="8.40" width="2.00" shape="1866.00,1396.95 1864.00,1396.82 1874.38,1397.50 1872.38,1397.37"/>
    </edge>
    <edge id=":4132421294_0" function="internal">
        <lane id=":4132421294_0_0" index="0" disallow="pedestrian tram rail_urban rail rail_electric rail_fast ship" speed="8.33" length="0.31" shape="1961.66,1315.94 1961.63,1316.25"/>
    </edge>
    <edge id=":4132421294_1" function="internal">
        <lane id=":4132421294_1_0" index="0" disallow="pedestrian tram rail_urban rail rail_electric rail_fast ship" speed="8.33" length="0.27" shape="1958.44,1316.00 1958.46,1315.73"/>
    </edge>
    <edge id=":4132421294_w0" function="walkingarea">
        <lane id=":4132421294_w0_0" index="0" allow="pedestrian" speed="1.00" length="0.35" width="2.00" shape="1963.23,1316.38 1965.22,1316.53 1965.25,1316.17 1963.25,1316.04"/>
    </edge>
    <edge id=":4132421294_w1" function="walkingarea">
        <lane id=":4132421294_w1_0" index="0" allow="pedestrian" speed="1.00" length="0.23" width="2.00" shape="1956.87,1315.63 1954.87,1315.50 1954.85,1315.72 1956.85,1315.87"/>
    </edge>
    <edge id=":4150930885_0" function="internal">
        <lane id=":4150930885_0_0" index="0" allow="bicycle" speed="12.50" length="8.16" width="2.65" shape="992.78,1290.42 990.33,1290.57 988.69,1291.25 987.05,1291.93 984.60,1292.08"/>
        <lane id=":4150930885_0_1" index="1" disallow="pedestrian tram rail_urban rail rail_electric rail_fast ship" speed="12.50" length="8.16" width="3.25" shape="992.81,1290.12 984.87,1289.14"/>