<?xml version="1.0" encoding="UTF-8"?>

<!-- generated on 12/11/19 08:40:54 by Eclipse SUMO polyconvert Version 1.4.0
<configuration xmlns:xsi="http://www.w3.org/2001/XMLSchema-instance" xsi:noNamespaceSchemaLocation="http://sumo.dlr.de/xsd/polyconvertConfiguration.xsd">

    <input>
        <net-file value="osm.net.xml"/>
        <osm-files value="osm_bbox.osm.xml"/>
        <osm.keep-full-type value="true"/>
        <type-file value="C:\Program%20Files%20(x86)\Eclipse\Sumo\data\typemap\osmPolyconvert.typ.xml"/>
    </input>

    <output>
        <output-file value="osm.poly.xml"/>
    </output>

    <processing>
        <poi-layer-offset value="5"/>
    </processing>

    <report>
        <verbose value="true"/>
    </report>

</configuration>
-->

<additional xmlns:xsi="http://www.w3.org/2001/XMLSchema-instance" xsi:noNamespaceSchemaLocation="http://sumo.dlr.de/xsd/additional_file.xsd">
    <location netOffset="-389324.06,-5817704.36" convBoundary="-1249.90,-2323.51,5959.65,5554.83" origBoundary="13.350628,52.477280,13.456602,52.548335" projParameter="+proj=utm +zone=33 +ellps=WGS84 +datum=WGS84 +units=m +no_defs"/>

    <poly id="104011034" type="landuse.brownfield" color="194,194,130" fill="1" layer="-3.00" shape="2362.391973,1172.411800 2349.653410,1164.670454 2338.675297,1158.247776 2321.242425,1147.316542 2325.103547,1140.465589 2331.894220,1132.225674 2346.266465,1140.765424 2360.572716,1150.007710 2372.581582,1157.909873 2362.391973,1172.411800"/>
    <poly id="104011054" type="building.yes" color="255,230,230" fill="1" layer="-1.00" shape="2351.577491,1297.446616 2347.340529,1282.996560 2350.848372,1281.973155 2351.847017,1285.378367 2371.409766,1279.660271 2370.330586,1275.989774 2377.103470,1274.015132 2378.153534,1277.597253 2401.554999,1270.770690 2403.697772,1278.023020 2404.822558,1281.915067 2357.426308,1295.748312 2351.577491,1297.446616"/>
    <poly id="104011054#1" type="tourism.hotel" color="207,245,201" fill="1" layer="-2.00" shape="2351.577491,1297.446616 2347.340529,1282.996560 2350.848372,1281.973155 2351.847017,1285.378367 2371.409766,1279.660271 2370.330586,1275.989774 2377.103470,1274.015132 2378.153534,1277.597253 2401.554999,1270.770690 2403.697772,1278.023020 2404.822558,1281.915067 2357.426308,1295.748312 2351.577491,1297.446616"/>
    <poly id="105738813" type="building.yes" color="255,230,230" fill="1" layer="-1.00" shape="2465.259488,1352.831093 2466.698375,1367.565591 2483.210391,1366.054771 2483.012926,1381.092471 2454.441696,1383.759874 2454.405707,1383.360076 2451.045056,1383.667994 2449.944496,1368.269498 2453.481101,1367.935438 2447.831757,1309.818552 2483.941761,1306.328112 2483.769460,1321.276234 2462.353722,1323.017762 2463.818630,1338.007618 2483.615556,1336.134931 2483.411298,1351.172780 2465.259488,1352.831093"/>
    <poly id="105738814" type="building.yes" color="255,230,230" fill="1" layer="-1.00" shape="2394.673562,1388.863898 2394.758286,1389.318255 2387.657723,1389.975940 2387.512171,1389.534055 2378.467252,1390.379390 2378.237958,1387.992030 2377.074915,1374.998479 2378.489143,1371.406394 2376.934924,1356.073573 2376.379706,1356.141484 2375.944029,1351.789107 2376.553536,1351.719995 2375.553840,1340.280694 2373.129183,1336.862492 2367.304309,1337.492003 2361.588011,1338.119120 2354.062320,1338.897526 2352.096900,1317.253341 2351.456231,1310.079093 2350.627620,1303.309594 2351.910178,1303.281236 2351.773766,1302.638853 2351.424856,1297.605777 2351.577491,1297.446616 2357.426308,1295.748312 2358.016352,1296.948172 2358.288150,1301.871677 2358.261597,1302.206092 2359.946204,1321.898034 2360.354101,1321.922398 2360.467845,1323.689168 2360.101401,1323.697270 2360.230585,1325.241146 2365.799573,1324.706305 2375.711253,1323.752770 2375.533342,1322.154332 2374.747150,1322.216222 2374.509395,1320.674745 2375.403426,1320.577089 2374.253302,1307.861443 2383.654345,1306.841321 2384.228156,1307.307123 2384.444122,1309.705905 2384.017833,1309.770965 2385.274392,1322.695683 2399.029805,1321.479195 2401.265988,1321.285115 2401.191597,1319.762282 2400.345419,1310.044360 2399.859679,1309.877054 2399.591249,1307.868896 2400.643626,1307.255877 2409.292409,1306.296939 2410.748196,1320.252123 2426.385704,1318.793824 2426.957381,1325.001504 2425.765012,1325.116870 2426.522709,1331.754414 2425.790527,1334.875184 2425.288706,1335.208971 2426.241371,1346.983144 2426.776479,1346.926810 2427.187669,1351.402135 2426.652070,1351.436224 2428.013122,1367.251809 2429.758944,1370.061893 2432.354269,1369.837636 2449.944496,1368.269498 2451.060687,1384.068241 2443.709525,1384.753635 2443.610742,1384.277332 2433.657970,1385.209386 2423.088666,1386.199594 2423.173633,1386.665075 2415.971767,1387.347212 2415.900125,1386.870310 2405.554516,1387.844485 2394.673562,1388.863898"/>
    <poly id="105738815" type="building.yes" color="255,230,230" fill="1" layer="-1.00" shape="2460.274461,1300.808559 2460.297762,1298.482383 2459.979120,1295.429341 2467.911806,1294.630984 2470.174411,1291.943778 2468.653633,1270.734847 2478.099407,1269.891962 2480.511562,1269.671778 2482.596921,1298.924598 2460.274461,1300.808559"/>
    <poly id="106844905" type="landuse.commercial" color="209,209,204" fill="1" layer="-3.00" shape="605.533862,1400.693127 601.753997,1440.659787 593.915200,1465.561708 568.396431,1458.100978 573.434281,1437.568388 567.417092,1430.537373 570.485032,1397.875333 591.985071,1399.606589 597.276014,1399.999578 605.533862,1400.693127"/>
    <poly id="113082200" type="building.apartments" color="255,230,230" fill="1" layer="-1.00" shape="2443.237464,1228.777837 2448.116069,1227.412650 2449.898270,1226.950434 2450.400842,1226.650015 2450.714537,1226.097835 2450.592599,1225.188068 2445.126846,1217.185686 2445.815253,1216.691994 2442.483236,1211.847218 2441.808646,1212.351733 2436.307308,1204.583825 2426.259089,1211.660407 2429.220399,1216.012622 2427.845421,1219.848629 2423.203837,1221.186344 2422.255192,1217.891289 2399.394764,1224.327449 2408.887162,1238.494492 2435.188551,1231.081020 2435.622105,1232.573662 2443.664229,1230.270631 2443.237464,1228.777837"/>
    <poly id="113082201" type="building.hotel" color="255,230,230" fill="1" layer="-1.00" shape="2431.235001,1074.870595 2431.980949,1075.443876 2436.073546,1069.533747 2435.983171,1068.823579 2430.524957,1063.936760 2430.041102,1064.470445 2423.399558,1058.574913 2415.259241,1069.659786 2420.186278,1073.245272 2400.985822,1100.620506 2395.360087,1092.454795 2384.186976,1099.945781 2394.412108,1114.997940 2393.601784,1115.505462 2398.628052,1122.660682 2399.367264,1122.622090 2404.253392,1115.448107 2403.501644,1114.919469 2431.235001,1074.870595"/>
    <poly id="11548677" type="natural.water" color="181,209,209" fill="0" layer="-4.00" shape="2835.224310,1607.194296 2805.344228,1590.137118 2672.642724,1520.297931 2665.128595,1513.275198 2654.724785,1505.748688 2652.020386,1503.794234 2635.628145,1491.937666 2593.817948,1463.483170 2541.622114,1437.283459 2529.279963,1432.693155 2507.200980,1424.668016 2500.540116,1421.254270 2498.136914,1420.339237 2476.513979,1415.753708 2413.461272,1407.999823 2367.924999,1410.096827 2347.136679,1411.947405 2342.870288,1412.742784 2340.338969,1413.711221 2337.283720,1415.548069 2334.335527,1417.927803 2332.233501,1419.888233 2330.640170,1421.826286 2329.382689,1423.601126 2310.947387,1459.083005 2303.300947,1473.729132 2189.352581,1669.626466 2186.314699,1674.690034 2183.818813,1679.396645 2130.564792,1785.598659 2115.970052,1826.994065 2078.009676,1922.909771 2069.967216,1939.223117 1991.816850,2090.600711 1987.095184,2127.749325 1959.078416,2233.482632 1938.797532,2288.602875 1939.585941,2290.176621 1939.661725,2292.367081 1926.506732,2313.467823 1924.723972,2313.273729 1915.642460,2329.510302 1861.609363,2368.878286 1779.124645,2468.178644 1768.150655,2481.386374 1755.876811,2496.269932 1743.755478,2510.682770 1685.035139,2582.060068 1687.698071,2584.293099 1678.137460,2596.023002 1675.441599,2593.835219 1673.169060,2597.858373 1667.778603,2600.248400"/>
    <poly id="11688785" type="building.detached" color="255,230,230" fill="1" layer="-1.00" shape="759.459708,1254.134968 762.554129,1254.365993 787.044579,1256.209080 787.326212,1252.419346 787.550910,1249.420955 787.750659,1246.823721 786.635239,1246.737462 788.641368,1220.241930 805.997575,1221.544090 805.928809,1222.413592 808.846558,1222.637482 808.678036,1224.811161 816.607906,1225.401153 816.554758,1226.058879 818.812750,1226.230802 821.077528,1226.402573 821.124139,1225.756122 828.768488,1226.330280 828.930981,1224.190119 831.984699,1224.422101 832.047431,1223.586118 849.437789,1224.898793 847.404636,1251.717599 845.996668,1251.604501 845.603896,1256.798811 845.284440,1261.023368 858.770710,1262.034125 873.467642,1263.140189 873.526087,1262.415579 875.040095,1242.418571 858.989669,1241.209305 859.843771,1229.940064 875.905563,1231.048930 877.067890,1216.868459 871.014739,1216.403224 871.109222,1215.165933 861.791725,1214.462295 862.080456,1210.683536 848.648585,1209.682674 849.397615,1199.784493 857.096288,1200.357478 858.174647,1186.067607 858.960736,1175.701235 851.057938,1175.110566 851.869470,1164.365280 825.691871,1162.392767 820.992351,1162.041901 794.774003,1160.070465 794.732434,1160.638910 788.278066,1160.149389 787.482291,1170.682910 787.074368,1170.658676 785.225398,1195.080930 792.727041,1195.647106 792.480928,1198.901914 792.000279,1205.322247 778.357502,1204.304051 778.064543,1208.194189 768.957885,1207.508253 768.837980,1209.124459 765.893076,1208.901202 762.778268,1208.670631 761.731182,1222.525851 764.784906,1222.757792 777.734201,1223.735865 776.885574,1234.938238 764.052172,1233.979823 760.998454,1233.747883 759.459708,1254.134968"/>
    <poly id="118904117" type="building.yes" color="255,230,230" fill="1" layer="-1.00" shape="591.224923,1092.009157 589.126801,1095.027398 588.701995,1093.345531 576.617157,1110.308645 586.218187,1110.927484 586.707457,1109.736953 590.889042,1109.999085 590.976358,1111.165533 630.577830,1113.747755 634.413143,1107.964228 626.793886,1102.471355 625.226204,1104.620832 604.568359,1103.259935 604.982456,1096.607389 605.856016,1095.597398 591.224923,1092.009157"/>
    <poly id="119633943" type="amenity.fountain" color="237,199,199" fill="1" layer="-1.00" shape="447.847841,1387.569150 447.167554,1386.905664 446.305828,1386.023707 446.009836,1385.240298 445.769442,1383.910380 445.563287,1381.989921 445.770073,1380.015661 446.162554,1378.448948 446.832508,1376.842609 447.763611,1375.074607 448.837853,1374.538561 449.711741,1374.452133 450.584848,1374.632788 451.499612,1375.457914 452.148413,1376.834283 452.451881,1378.251804 452.577383,1379.907012 452.433198,1381.646181 452.008008,1383.569717 451.270385,1385.789602 450.158874,1387.083171 449.084384,1387.608094 447.847841,1387.569150"/>
    <poly id="121674886" type="building.apartments" color="255,230,230" fill="1" layer="-1.00" shape="1983.353435,1584.037022 1983.457069,1583.812171 1982.931983,1583.400972 1982.713114,1582.715916 1982.909896,1582.099532 1983.301612,1581.701374 1983.175029,1581.503886 2007.175280,1564.725129 2014.662907,1575.408455 2009.459411,1578.940052 2009.991897,1579.684918 2010.137843,1581.673522 2009.708001,1582.495372 2015.843934,1585.497252 2010.155806,1597.173879 1983.353435,1584.037022"/>
    <poly id="122111241" type="building.yes" color="255,230,230" fill="1" layer="-1.00" shape="637.327014,1158.196023 655.754478,1159.417963 654.696342,1175.187429 641.367604,1174.251580 636.274474,1173.909732 637.327014,1158.196023"/>
    <poly id="122111243" type="building.yes" color="255,230,230" fill="1" layer="-1.00" shape="655.754478,1159.417963 679.450763,1160.944533 698.209563,1181.465758 700.816264,1184.467364 690.371677,1193.748644 675.082165,1176.543506 654.696342,1175.187429 655.754478,1159.417963"/>
    <poly id="122111247" type="building.yes" color="255,230,230" fill="1" layer="-1.00" shape="626.685041,1157.478063 634.436611,1157.982748 637.327014,1158.196023 636.274474,1173.909732 633.410726,1173.673603 632.717031,1173.622417 626.223937,1173.223001 612.732566,1172.302010 613.573665,1158.362350 613.760884,1156.722371 626.685041,1157.478063"/>
    <poly id="128396193" type="building.apartments" color="255,230,230" fill="1" layer="-1.00" shape="2108.072566,1321.442019 2105.489849,1353.791531 2083.256757,1352.036517 2085.838344,1319.642503 2093.945502,1320.286257 2093.760251,1322.649413 2100.350674,1323.171008 2100.536668,1320.841219 2108.072566,1321.442019"/>
    <poly id="128396194" type="building.residential" color="255,230,230" fill="1" layer="-1.00" shape="2100.536668,1320.841219 2108.072566,1321.442019 2124.110430,1322.733524 2127.028920,1285.613980 2118.590673,1285.044270 2118.418487,1287.384880 2112.000134,1286.970722 2112.086695,1284.442841 2103.645732,1283.750814 2100.536668,1320.841219"/>
    <poly id="134680847" type="building.retail" color="255,230,230" fill="1" layer="-1.00" shape="2310.598214,985.923966 2313.887560,989.133852 2319.574771,983.488802 2319.810676,983.717264 2331.005099,972.575825 2291.141557,933.565119 2282.652610,942.699471 2280.150087,944.980347 2283.438250,948.134602 2278.865683,952.909338 2293.153869,967.137000 2298.193737,972.745093 2303.316254,967.969338 2313.552029,977.646492 2307.956486,983.445307 2310.598214,985.923966"/>
    <poly id="134681701" type="amenity.parking" color="184,184,179" fill="1" layer="-1.00" shape="1044.847149,1249.432002 1067.032269,1256.580333 1097.390464,1266.094192 1114.238752,1271.414757 1118.712995,1159.982359 1120.785170,1139.394346 1080.457258,1127.677485 1065.906064,1177.409868 1044.847149,1249.432002"/>
    <poly id="137118022" type="amenity.school" color="237,199,199" fill="1" layer="-1.00" shape="1022.634057,1577.127470 1005.808538,1573.086425 981.301092,1565.556436 981.489969,1564.895673 950.983496,1555.664098 943.382348,1580.938427 945.003256,1581.469631 943.372008,1586.235440 941.948633,1585.733194 941.781366,1586.449114 942.368918,1586.613995 935.361194,1610.795662 937.563107,1611.503019 934.800121,1621.813520 931.923448,1620.987748 925.734725,1642.024204 928.747846,1642.880298 925.585799,1653.255384 922.225373,1652.351436 916.996370,1670.161628 915.957263,1671.052871 965.822254,1685.915206 986.098086,1691.859570 999.524494,1695.709572 1004.330132,1679.900811 1002.915070,1679.465129 1004.515835,1673.943340 1006.361506,1667.837430 1007.843182,1668.215983 1012.596585,1652.497424 1014.366018,1645.714434 954.721981,1628.611398 957.590962,1618.788155 1018.303055,1636.590620 1034.573004,1580.632532 1022.634057,1577.127470"/>
    <poly id="13759935" type="building.commercial" color="255,230,230" fill="1" layer="-1.00" shape="435.700219,1138.870731 430.227767,1140.985729 430.563460,1142.024181 428.477733,1142.872309 428.170435,1141.888857 423.118767,1143.693946 413.990197,1120.019274 399.007182,1132.474578 418.399738,1147.004925 415.138649,1151.440381 416.277656,1152.271584 414.807091,1154.507968 413.634654,1153.699774 410.307436,1158.515065 389.356862,1143.541329 391.773573,1140.204251 390.778823,1139.447701 388.321144,1142.774574 383.766588,1139.516526 385.266041,1137.357376 384.915184,1137.153847 384.546418,1137.662896 384.138266,1137.327124 398.865089,1116.809937 422.627264,1108.274330 422.808434,1108.782128 422.222779,1109.006734 422.345905,1109.348923 424.817717,1108.458721 426.730688,1113.812622 422.965666,1115.165904 423.399375,1116.335683 427.144787,1115.016226 435.700219,1138.870731"/>
    <poly id="13760720" type="building.yes" color="255,230,230" fill="1" layer="-1.00" shape="456.088651,1502.778283 465.362746,1478.032994 448.020624,1471.590740 438.928317,1496.265207 456.088651,1502.778283"/>
    <poly id="138554284" type="landuse.commercial" color="209,209,204" fill="1" layer="-3.00" shape="1216.891941,1511.002294 1201.285900,1509.581714 1201.237753,1510.161429 1198.083694,1509.987104 1197.341900,1519.629116 1196.906618,1519.594333 1195.566987,1537.116968 1195.988696,1537.152054 1195.236325,1546.927835 1194.632945,1554.864222 1193.224762,1573.267477 1192.231432,1585.930712 1205.810464,1586.884678 1205.825428,1586.339087 1208.477548,1586.535759 1208.435193,1587.070834 1209.652309,1587.154913 1211.992537,1587.369684 1213.883173,1587.516608 1213.938852,1586.970108 1216.319545,1587.172849 1216.283974,1587.707772 1228.621469,1588.700670 1266.372311,1591.607418 1269.133492,1591.823942 1269.078055,1592.381563 1308.019299,1595.395577 1308.055625,1594.894021 1310.578807,1595.093627 1311.828297,1579.598282 1313.763128,1556.787892 1304.965890,1555.938291 1300.883549,1555.539817 1269.263750,1552.362332 1269.251093,1552.707573 1262.389670,1552.204283 1245.709075,1550.996737 1243.206223,1550.796710 1238.649618,1550.442266 1240.455261,1526.421807 1215.983781,1524.442553 1216.891941,1511.002294"/>
    <poly id="138554287" type="landuse.commercial" color="209,209,204" fill="1" layer="-3.00" shape="1184.554184,1683.180118 1208.293799,1685.253436 1227.251247,1686.899585 1238.413355,1687.863122 1259.377473,1689.687118 1264.900718,1690.164646 1273.300442,1690.856131 1290.861843,1692.311149 1301.030009,1693.152362 1323.447410,1694.999821 1342.749834,1696.594202 1366.132969,1698.520449 1367.311338,1683.482942 1369.013573,1661.801661 1370.287055,1645.549119 1371.481597,1630.322084 1372.104858,1622.351902 1364.717830,1621.715541 1349.522066,1620.407752 1321.232226,1617.967953 1306.648628,1616.713397 1302.778181,1616.376959 1296.326968,1615.997998 1285.174479,1615.167642 1277.659988,1614.601024 1270.601123,1614.068751 1260.135461,1613.289879 1252.369398,1612.706662 1250.254600,1612.553603 1239.720826,1611.765167 1235.626940,1611.456029 1226.934299,1610.726638 1201.991790,1608.613333 1190.415073,1607.636884 1187.410605,1646.350441 1184.554184,1683.180118"/>
    <poly id="143767744" type="building.yes" color="255,230,230" fill="1" layer="-1.00" shape="582.450442,1139.053979 583.146801,1126.230335 566.112876,1125.088622 537.110511,1165.711252 535.615395,1168.971899 534.692326,1172.308710 532.177611,1204.813666 558.488405,1181.900044 547.740886,1181.318161 548.562108,1172.241742 572.320886,1138.480409 582.450442,1139.053979"/>
    <poly id="145185647" type="building.residential" color="255,230,230" fill="1" layer="-1.00" shape="2244.326466,1197.456543 2254.566736,1174.830103 2264.209000,1153.095999 2278.821897,1159.927709 2270.056099,1179.850850 2275.805785,1182.872738 2277.514062,1178.762250 2318.935906,1202.048451 2316.955217,1205.508422 2322.578365,1208.644438 2333.753921,1191.761573 2344.044943,1198.433110 2316.746348,1236.892803 2306.187466,1230.694608 2312.213212,1222.872172 2308.306431,1220.287966 2309.952433,1217.658833 2267.960528,1194.073752 2265.810211,1199.685121 2259.395598,1196.989531 2256.669804,1202.980849 2244.326466,1197.456543"/>
    <poly id="145191973" type="building.retail" color="255,230,230" fill="1" layer="-1.00" shape="2236.413742,1016.942041 2237.156450,1016.447118 2238.165202,1017.849122 2251.671597,1010.250533 2252.193975,1011.151434 2254.944662,1009.655109 2254.554568,1008.595493 2260.239078,1005.287222 2254.299355,994.914223 2253.599224,995.185649 2249.241667,987.581794 2248.895593,986.977436 2224.825287,1000.451525 2227.535446,1004.486487 2236.413742,1016.942041"/>
    <poly id="145191978" type="building.industrial" color="255,230,230" fill="1" layer="-1.00" shape="2227.535446,1004.486487 2236.413742,1016.942041 2237.024099,1017.829867 2211.380548,1035.678604 2202.219435,1022.717487 2201.861263,1022.180165 2221.503199,1008.648190 2227.535446,1004.486487"/>
    <poly id="145292263" type="landuse.government" color="194,194,130" fill="1" layer="-3.00" shape="689.690669,1117.439011 692.256592,1036.349483 672.473045,1064.868804 667.823314,1061.901953 655.850136,1053.313141 654.842338,1052.579087 645.021607,1046.111870 643.026616,1044.654432 630.380580,1035.435383 592.241597,1088.303043 592.872149,1088.867516 590.541290,1091.801963 591.224923,1092.009157 589.126801,1095.027398 588.701995,1093.345531 576.617157,1110.308645 586.218187,1110.927484 586.707457,1109.736953 590.889042,1109.999085 590.976358,1111.165533 630.577830,1113.747755 689.690669,1117.439011"/>
    <poly id="14580816" type="building.yes" color="255,230,230" fill="1" layer="-1.00" shape="514.380517,1085.768873 568.189855,1066.142963 563.866860,1054.756315 557.880995,1056.993980 555.030674,1049.201876 551.427312,1039.323561 557.190994,1037.168777 551.569149,1022.372867 497.928040,1041.950649 503.648257,1057.189399 533.126047,1046.456073 540.657963,1067.084461 511.361766,1077.735769 514.380517,1085.768873"/>
    <poly id="14580817" type="building.yes" color="255,230,230" fill="1" layer="-1.00" shape="489.897751,1030.269085 545.944339,1008.956866 540.966679,995.938049 532.342452,999.214287 514.767609,953.195695 523.452237,949.884689 518.459892,936.821711 462.392211,958.134691 467.391725,971.208583 496.529678,960.137739 514.104424,1006.145145 484.926495,1017.239048 489.897751,1030.269085"/>
    <poly id="14580825" type="building.yes" color="255,230,230" fill="1" layer="-1.00" shape="516.184953,1089.923452 569.433019,1070.098747 547.820597,1104.212432 545.907060,1106.681285 543.419724,1108.996121 541.041367,1110.117843 538.591432,1110.773811 536.449919,1111.255932 533.869152,1110.924477 531.207235,1110.305527 528.452164,1108.865222 526.452875,1107.519204 523.513530,1104.224716 521.240347,1100.058418 518.899798,1095.915891 516.184953,1089.923452"/>
    <poly id="14582095" type="building.commercial" color="255,230,230" fill="1" layer="-1.00" shape="662.332026,1353.159449 655.728848,1352.684580 655.602451,1354.312064 654.146754,1354.188967 653.006232,1368.402411 654.420959,1368.515300 654.293813,1370.109418 638.323656,1368.832319 637.204584,1382.789350 659.813011,1384.596159 660.618441,1374.507494 662.332026,1353.159449"/>
    <poly id="14582098" type="building.commercial" color="255,230,230" fill="1" layer="-1.00" shape="602.115235,1348.558697 614.602800,1349.546703 613.224985,1366.792230 600.614817,1365.784728 599.453885,1379.687073 637.204584,1382.789350 638.323656,1368.832319 625.781609,1367.834350 627.175828,1350.410417 639.772207,1351.407170 640.897585,1337.427744 634.598255,1336.879312 622.038016,1335.981908 603.234971,1334.635024 602.115235,1348.558697"/>
    <poly id="146824851" type="building.yes" color="255,230,230" fill="1" layer="-1.00" shape="1894.755809,1573.885628 1876.723681,1546.044187 1876.502717,1546.182626 1873.394998,1541.366623 1873.867279,1536.037133 1874.105273,1536.054103 1875.331077,1522.773888 1875.038550,1522.747002 1875.419191,1518.487799 1874.501141,1518.419167 1875.268353,1510.167692 1876.141375,1510.348600 1876.495006,1506.401571 1880.567081,1506.644964 1880.600371,1505.698378 1888.826196,1506.194489 1888.779332,1507.141377 1892.980333,1507.381918 1892.826002,1508.075257 1894.431989,1507.327428 1894.351172,1507.051033 1900.202890,1503.360261 1900.387716,1503.734496 1908.333011,1498.628552 1908.197167,1498.319995 1914.879229,1494.110063 1919.315813,1506.185176 1912.393053,1510.255787 1918.450515,1519.501882 1923.065511,1516.372719 1925.152508,1522.001471 1926.122286,1524.706207 1922.744255,1526.672891 1927.579487,1534.076691 1929.272450,1533.271305 1934.415442,1547.200187 1929.993551,1550.158140 1918.800358,1557.583933 1894.755809,1573.885628"/>
    <poly id="146824852" type="building.yes" color="255,230,230" fill="1" layer="-1.00" shape="1742.778767,1616.398610 1744.419495,1596.454799 1760.103254,1597.730705 1759.665777,1603.092820 1757.410333,1630.505801 1749.643395,1629.877310 1741.719891,1629.230056 1742.778767,1616.398610"/>
    <poly id="147030009" type="building.yes" color="255,230,230" fill="1" layer="-1.00" shape="1908.341157,1429.581539 1907.940109,1433.229172 1883.312973,1431.272292 1883.432376,1429.923199 1876.810602,1429.513873 1877.509996,1421.875925 1876.491842,1420.663371 1876.734220,1417.820447 1877.978972,1416.702297 1879.132920,1404.158106 1920.693104,1407.363671 1920.957842,1404.609274 1940.162420,1406.041297 1939.959979,1408.849948 1938.777408,1424.699655 1938.506129,1428.077342 1925.941670,1427.265729 1925.680395,1430.787854 1908.341157,1429.581539"/>
    <poly id="147030010" type="building.yes" color="255,230,230" fill="1" layer="-1.00" shape="2035.876629,1528.179764 2036.367661,1528.892169 2036.194192,1529.029547 2032.519588,1523.747534 2027.960053,1526.931000 2028.675136,1527.950008 2022.965485,1531.926791 2016.431758,1522.624372 2021.439521,1519.141636 2020.704078,1518.123081 2035.599961,1507.744493 2036.362053,1508.740205 2041.135795,1505.418466 2040.353594,1504.434327 2055.075843,1494.182056 2055.764275,1495.223914 2060.899050,1491.649384 2060.136962,1490.653668 2075.186865,1480.171645 2082.455717,1490.481583 2077.294276,1494.078937 2078.865076,1496.336401 2077.180460,1497.519888 2078.064066,1498.791102 2074.794650,1501.066843 2075.292958,1501.801345 2075.105422,1501.916779 2073.023975,1498.980725 2071.424796,1496.668253 2066.905432,1499.828536 2067.579796,1500.848452 2058.126041,1507.434165 2059.696847,1509.691623 2058.038889,1510.852271 2058.889062,1512.146478 2055.619664,1514.422232 2056.117727,1515.145611 2055.937225,1515.272017 2052.175898,1510.058677 2047.629662,1513.230702 2048.344743,1514.249713 2038.376184,1521.191837 2039.946995,1523.449289 2038.262151,1524.621667 2039.146009,1525.903996 2035.876629,1528.179764"/>
    <poly id="147065898" type="building.apartments" color="255,230,230" fill="1" layer="-1.00" shape="2003.386035,1639.353026 2012.494294,1620.879446 2014.793763,1616.199355 2005.644693,1611.717582 1993.914855,1605.968894 1987.379471,1619.233341 1996.672769,1623.789775 1991.800482,1633.679038 2003.386035,1639.353026"/>
    <poly id="147082781" type="landuse.grass" color="194,194,130" fill="1" layer="-3.00" shape="1530.487543,1565.496842 1532.926702,1536.633029 1538.970352,1536.999129 1542.706723,1538.629548 1545.591120,1541.024501 1547.080426,1542.660471 1548.248724,1544.515017 1549.981639,1548.248686 1551.104086,1552.007081 1551.778471,1554.851862 1552.754906,1559.370190 1553.232270,1563.732720 1553.399323,1567.879609 1553.354189,1572.253778 1536.801706,1570.997882 1535.810179,1568.850082 1534.673637,1567.506703 1533.258538,1566.458849 1531.688760,1565.781654 1530.487543,1565.496842"/>
    <poly id="147082781#1" type="tourism.attraction" color="207,245,201" fill="1" layer="-2.00" shape="1530.487543,1565.496842 1532.926702,1536.633029 1538.970352,1536.999129 1542.706723,1538.629548 1545.591120,1541.024501 1547.080426,1542.660471 1548.248724,1544.515017 1549.981639,1548.248686 1551.104086,1552.007081 1551.778471,1554.851862 1552.754906,1559.370190 1553.232270,1563.732720 1553.399323,1567.879609 1553.354189,1572.253778 1536.801706,1570.997882 1535.810179,1568.850082 1534.673637,1567.506703 1533.258538,1566.458849 1531.688760,1565.781654 1530.487543,1565.496842"/>
    <poly id="147082782" type="landuse.grass" color="194,194,130" fill="1" layer="-3.00" shape="1529.204020,1580.714674 1526.775517,1609.444723 1531.811549,1610.601069 1534.728714,1610.202246 1537.630669,1609.425424 1541.057481,1607.524146 1543.526477,1604.987678 1546.425222,1600.104832 1548.908069,1595.142231 1550.459306,1590.111364 1551.647342,1585.233247 1552.419680,1581.198964 1552.915790,1577.259855 1536.448716,1576.180101 1534.983586,1578.371505 1533.690709,1579.457436 1532.187325,1580.236483 1530.249259,1580.702513 1529.204020,1580.714674"/>
    <poly id="147082782#1" type="tourism.attraction" color="207,245,201" fill="1" layer="-2.00" shape="1529.204020,1580.714674 1526.775517,1609.444723 1531.811549,1610.601069 1534.728714,1610.202246 1537.630669,1609.425424 1541.057481,1607.524146 1543.526477,1604.987678 1546.425222,1600.104832 1548.908069,1595.142231 1550.459306,1590.111364 1551.647342,1585.233247 1552.419680,1581.198964 1552.915790,1577.259855 1536.448716,1576.180101 1534.983586,1578.371505 1533.690709,1579.457436 1532.187325,1580.236483 1530.249259,1580.702513 1529.204020,1580.714674"/>
    <poly id="147082783" type="landuse.grass" color="194,194,130" fill="1" layer="-3.00" shape="1548.364450,1536.300240 1587.122028,1538.986741 1589.455919,1541.661042 1587.976687,1543.830488 1586.405033,1545.812823 1584.182597,1548.143479 1581.682296,1550.191006 1578.967528,1551.753695 1576.063355,1553.042412 1571.510705,1553.778080 1567.410017,1553.468815 1563.602890,1552.318442 1559.667619,1550.291843 1556.762823,1547.285316 1554.074174,1544.229465 1548.364450,1536.300240"/>
    <poly id="147082783#1" type="tourism.attraction" color="207,245,201" fill="1" layer="-2.00" shape="1548.364450,1536.300240 1587.122028,1538.986741 1589.455919,1541.661042 1587.976687,1543.830488 1586.405033,1545.812823 1584.182597,1548.143479 1581.682296,1550.191006 1578.967528,1551.753695 1576.063355,1553.042412 1571.510705,1553.778080 1567.410017,1553.468815 1563.602890,1552.318442 1559.667619,1550.291843 1556.762823,1547.285316 1554.074174,1544.229465 1548.364450,1536.300240"/>
    <poly id="147111555" type="amenity.parking" color="184,184,179" fill="1" layer="-1.00" shape="1604.854462,1221.198381 1578.863412,1219.028545 1558.013965,1217.556648 1561.606636,1168.214596 1595.208042,1170.337311 1598.376363,1170.533836 1597.614613,1182.368340 1608.062239,1183.215130 1604.854462,1221.198381"/>
    <poly id="147228425" type="leisure.playground" color="207,245,201" fill="1" layer="-2.00" shape="2012.616133,1511.904102 2008.875579,1514.056808 2006.744148,1505.502449 2000.297468,1493.393962 1993.680726,1496.879032 1978.867974,1468.164621 1975.642378,1469.660524 1976.177830,1465.642705 1978.056344,1440.152189 1981.026075,1440.587041 2060.351063,1454.684518 2076.165376,1466.429624 2012.616133,1511.904102"/>
    <poly id="147237713" type="building.yes" color="255,230,230" fill="1" layer="-1.00" shape="1738.710392,1451.455247 1733.469615,1451.171192 1722.949181,1450.381413 1690.232037,1447.937773 1671.027514,1446.506730 1669.807235,1462.757968 1666.253820,1509.929173 1665.247698,1523.293592 1674.421445,1523.979676 1703.676740,1526.166369 1725.873335,1527.831430 1732.557444,1528.606375 1738.710392,1451.455247"/>