<?xml version="1.0" encoding="UTF-8"?>

<!-- generated on 02/25/20 17:18:54 by Eclipse SUMO jtrrouter Version 1.4.0
<configuration xmlns:xsi="http://www.w3.org/2001/XMLSchema-instance" xsi:noNamespaceSchemaLocation="http://sumo.dlr.de/xsd/jtrrouterConfiguration.xsd">

    <input>
        <net-file value="Netz_V11.net.xml"/>
        <route-files value="flows_trucks.xml"/>
        <turn-ratio-files value="definition_trucks.turns.xml"/>
    </input>

    <output>
        <output-file value="routes_trucks.rou.xml"/>
    </output>

    <processing>
        <unsorted-input value="true"/>
        <route-steps value="100000"/>
        <no-internal-links value="true"/>
        <remove-loops value="true"/>
        <repair value="true"/>
        <max-edges-factor value="0.25"/>
    </processing>

    <defaults>
        <departlane value="best"/>
    </defaults>

    <time>
        <begin value="0"/>
        <end value="100000"/>
    </time>

</configuration>
-->

<routes xmlns:xsi="http://www.w3.org/2001/XMLSchema-instance" xsi:noNamespaceSchemaLocation="http://sumo.dlr.de/xsd/routes_file.xsd">
<vType id="type2" sigma="0" speedFactor="1.0" minGap="0.5" tau="0.5" vClass="truck" emissionClass="PHEMlight/PC_D_EU6"/>
    <vehicle id="Truck000_KP1_1.0" type="type2" depart="0.00" departLane="best">
        <route edges="in_wilhelmN 335462921#3 KP12_1 KP12_2 KP23_1 KP23_2 199847252#1 199847252#2 out_friedrichN"/>
    </vehicle>
    <vehicle id="Truck000_KP1_2.0" type="type2" depart="0.00" departLane="best">
        <route edges="in_leipzigerstr 505526660#0 KP12_1 KP12_2 KP23_1 KP23_2 KP34_1 KP34_2 KP45_1 KP45_2 KP56_1 KP56_2 KP67_1 KP67_2 KP67_3 gneE7 4773464#0 out_spittelmarkt"/>
    </vehicle>
    <vehicle id="Truck000_KP1_3.0" type="type2" depart="0.00" departLane="best">
        <route edges="in_wilhelmS -25042806#1 -707107510#2 -335462921#5 out_wilhelmN"/>
    </vehicle>
    <vehicle id="Truck000_KP2_1.0" type="type2" depart="0.00" departLane="best">
        <route edges="in_mauerN KP21_1 KP21_2 -505526660#2 out_leipzigerstr"/>
    </vehicle>
    <vehicle id="Truck000_KP2_3.0" type="type2" depart="0.00" departLane="best">
        <route edges="in_mauerS KP21_1 KP21_2 -335462921#5 out_wilhelmN"/>
    </vehicle>
    <vehicle id="Truck000_KP3_1.0" type="type2" depart="0.00" departLane="best">
        <route edges="in_friedrichN 199847247#0 199847247#1 -81113584#2 199847241#0 199847241#1 out_friedrichS"/>
    </vehicle>
    <vehicle id="Truck000_KP3_3.0" type="type2" depart="0.00" departLane="best">
        <route edges="in_friedrichS 199847244#1 199847244#3 81113584#0 199847252#1 199847252#2 out_friedrichN"/>
    </vehicle>
    <vehicle id="Truck000_KP4_1.0" type="type2" depart="0.00" departLane="best">
        <route edges="in_charlottenN KP45_1 KP45_2 KP56_1 KP56_2 KP67_1 KP67_2 KP67_3 gneE7 4773464#0 out_spittelmarkt"/>
    </vehicle>
    <vehicle id="Truck000_KP4_3.0" type="type2" depart="0.00" departLane="best">
        <route edges="in_charlottenS -22972469#2 out_charlottenN"/>
    </vehicle>
    <vehicle id="Truck000_KP5_1.0" type="type2" depart="0.00" departLane="best">
        <route edges="in_markgrafenN 375311158#1 KP56_1 KP56_2 25945760#0 out_jerusalemer"/>
    </vehicle>
    <vehicle id="Truck000_KP6_3.0" type="type2" depart="0.00" departLane="best">
        <route edges="in_jerusalemer -25945760#0 KP67_1 KP67_2 KP67_3 gneE7 4773464#0 out_spittelmarkt"/>
    </vehicle>
    <vehicle id="Truck000_KP7_3.0" type="type2" depart="0.00" departLane="best">
        <route edges="in_axel 71143837 24214231#0 108488061#1 gneE16 KP76_1 KP65_1 KP65_2 KP65_3 KP54_1 KP54_2 KP43_1 KP43_2 KP32_1 KP32_2 KP21_1 KP21_2 -505526660#2 out_leipzigerstr"/>
    </vehicle>
    <vehicle id="Truck000_KP7_4.0" type="type2" depart="0.00" departLane="best">
        <route edges="in_spittelmarkt 120359703 4611722#0 gneE8 KP76_1 KP65_1 KP65_2 KP65_3 KP54_1 KP54_2 KP43_1 KP43_2 KP32_1 KP32_2 out_mauerN"/>
    </vehicle>
    <vehicle id="Truck000_KP7_4.1" type="type2" depart="327.27" departLane="best">
        <route edges="in_spittelmarkt 120359703 4611722#0 gneE8 gneE10 42747981#3 66071390#2 -71143837 out_axel"/>
    </vehicle>
    <vehicle id="Truck000_KP1_2.1" type="type2" depart="450.00" departLane="best">
        <route edges="in_leipzigerstr 505526660#0 KP12_1 KP12_2 KP23_1 KP23_2 KP34_1 KP34_2 KP45_1 KP45_2 KP56_1 KP56_2 KP67_1 KP67_2 KP67_3 gneE7 4773464#0 out_spittelmarkt"/>
    </vehicle>
    <vehicle id="Truck000_KP7_4.2" type="type2" depart="654.55" departLane="best">
        <route edges="in_spittelmarkt 120359703 4611722#0 gneE8 KP76_1 KP65_1 KP65_2 KP65_3 KP54_1 KP54_2 KP43_1 KP43_2 KP32_1 KP32_2 KP21_1 KP21_2 -505526660#2 out_leipzigerstr"/>
    </vehicle>
    <vehicle id="Truck000_KP1_2.2" type="type2" depart="900.00" departLane="best">
        <route edges="in_leipzigerstr 505526660#0 KP12_1 KP12_2 KP23_1 KP23_2 KP34_1 KP34_2 KP45_1 KP45_2 -375311158#2 out_markgrafenN"/>
    </vehicle>
    <vehicle id="Truck000_KP1_3.1" type="type2" depart="900.00" departLane="best">
        <route edges="in_wilhelmS -25042806#1 -707107510#2 -335462921#5 out_wilhelmN"/>
    </vehicle>
    <vehicle id="Truck000_KP7_4.3" type="type2" depart="981.82" departLane="best">
        <route edges="in_spittelmarkt 120359703 4611722#0 gneE8 KP76_1 KP65_1 KP65_2 KP65_3 KP54_1 KP54_2 KP43_1 KP43_2 KP32_1 KP32_2 KP21_1 KP21_2 -505526660#2 out_leipzigerstr"/>
    </vehicle>
    <vehicle id="Truck000_KP7_3.1" type="type2" depart="1200.00" departLane="best">
        <route edges="in_axel 71143837 24214231#0 108488061#1 gneE16 KP76_1 KP65_1 KP65_2 KP65_3 KP54_1 KP54_2 KP43_1 KP43_2 KP32_1 KP32_2 KP21_1 KP21_2 707107510#0 25042806#1 out_wilhelmS"/>
    </vehicle>
    <vehicle id="Truck000_KP7_4.4" type="type2" depart="1309.09" departLane="best">
        <route edges="in_spittelmarkt 120359703 4611722#0 gneE8 KP76_1 KP65_1 KP65_2 KP65_3 KP54_1 KP54_2 KP43_1 KP43_2 -81113584#2 199847241#0 199847241#1 out_friedrichS"/>
    </vehicle>
    <vehicle id="Truck000_KP1_2.3" type="type2" depart="1350.00" departLane="best">
        <route edges="in_leipzigerstr 505526660#0 KP12_1 KP12_2 KP23_1 KP23_2 KP34_1 KP34_2 KP45_1 KP45_2 KP56_1 KP56_2 KP67_1 KP67_2 KP67_3 gneE7 4773464#0 out_spittelmarkt"/>
    </vehicle>
    <vehicle id="Truck000_KP7_4.5" type="type2" depart="1636.37" departLane="best">
        <route edges="in_spittelmarkt 120359703 4611722#0 gneE8 KP76_1 KP65_1 KP65_2 KP65_3 KP54_1 KP54_2 KP43_1 KP43_2 KP32_1 KP32_2 KP21_1 KP21_2 -505526660#2 out_leipzigerstr"/>
    </vehicle>
    <vehicle id="Truck000_KP1_2.4" type="type2" depart="1800.00" departLane="best">
        <route edges="in_leipzigerstr 505526660#0 KP12_1 KP12_2 KP23_1 KP23_2 KP34_1 KP34_2 KP45_1 KP45_2 KP56_1 KP56_2 KP67_1 KP67_2 KP67_3 gneE7 4773464#0 out_spittelmarkt"/>
    </vehicle>
    <vehicle id="Truck000_KP1_3.2" type="type2" depart="1800.00" departLane="best">
        <route edges="in_wilhelmS -25042806#1 -707107510#2 KP12_1 KP12_2 out_mauerS"/>
    </vehicle>
    <vehicle id="Truck000_KP3_1.1" type="type2" depart="1800.00" departLane="best">
        <route edges="in_friedrichN 199847247#0 199847247#1 -81113584#2 199847241#0 199847241#1 out_friedrichS"/>
    </vehicle>
    <vehicle id="Truck000_KP3_3.1" type="type2" depart="1800.00" departLane="best">
        <route edges="in_friedrichS 199847244#1 199847244#3 81113584#0 199847252#1 199847252#2 out_friedrichN"/>
    </vehicle>
    <vehicle id="Truck000_KP7_4.6" type="type2" depart="1963.64" departLane="best">
        <route edges="in_spittelmarkt 120359703 4611722#0 gneE8 KP76_1 KP65_1 KP65_2 KP65_3 KP54_1 KP54_2 KP43_1 KP43_2 KP32_1 KP32_2 KP21_1 KP21_2 -505526660#2 out_leipzigerstr"/>
    </vehicle>
    <vehicle id="Truck000_KP1_2.5" type="type2" depart="2250.00" departLane="best">
        <route edges="in_leipzigerstr 505526660#0 KP12_1 KP12_2 KP23_1 KP23_2 -81113584#2 199847241#0 199847241#1 out_friedrichS"/>
    </vehicle>
    <vehicle id="Truck000_KP7_4.7" type="type2" depart="2290.91" departLane="best">
        <route edges="in_spittelmarkt 120359703 4611722#0 gneE8 KP76_1 KP65_1 KP65_2 KP65_3 KP54_1 KP54_2 KP43_1 KP43_2 199847252#1 199847252#2 out_friedrichN"/>
    </vehicle>
    <vehicle id="Truck000_KP7_3.2" type="type2" depart="2400.00" departLane="best">
        <route edges="in_axel 71143837 24214231#0 108488061#1 gneE16 gneE7 4773464#0 out_spittelmarkt"/>
    </vehicle>
    <vehicle id="Truck000_KP7_4.8" type="type2" depart="2618.18" departLane="best">
        <route edges="in_spittelmarkt 120359703 4611722#0 gneE8 KP76_1 KP65_1 KP65_2 KP65_3 KP54_1 KP54_2 KP43_1 KP43_2 KP32_1 KP32_2 out_mauerN"/>
    </vehicle>
    <vehicle id="Truck000_KP1_2.6" type="type2" depart="2700.00" departLane="best">
        <route edges="in_leipzigerstr 505526660#0 KP12_1 KP12_2 KP23_1 KP23_2 KP34_1 KP34_2 KP45_1 KP45_2 KP56_1 KP56_2 KP67_1 KP67_2 KP67_3 gneE7 4773464#0 out_spittelmarkt"/>
    </vehicle>
    <vehicle id="Truck000_KP1_3.3" type="type2" depart="2700.00" departLane="best">
        <route edges="in_wilhelmS -25042806#1 -707107510#2 -335462921#5 out_wilhelmN"/>
    </vehicle>
    <vehicle id="Truck000_KP7_4.9" type="type2" depart="2945.46" departLane="best">
        <route edges="in_spittelmarkt 120359703 4611722#0 gneE8 gneE10 42747981#3 66071390#2 -71143837 out_axel"/>
    </vehicle>
    <vehicle id="Truck000_KP1_2.7" type="type2" depart="3150.00" departLane="best">
        <route edges="in_leipzigerstr 505526660#0 KP12_1 KP12_2 KP23_1 KP23_2 KP34_1 KP34_2 KP45_1 KP45_2 KP56_1 KP56_2 25945760#0 out_jerusalemer"/>
    </vehicle>
    <vehicle id="Truck000_KP7_4.10" type="type2" depart="3272.73" departLane="best">
        <route edges="in_spittelmarkt 120359703 4611722#0 gneE8 KP76_1 KP65_1 KP65_2 KP65_3 KP54_1 KP54_2 KP43_1 KP43_2 KP32_1 KP32_2 KP21_1 KP21_2 -505526660#2 out_leipzigerstr"/>
    </vehicle>
    <vehicle id="Truck036_KP1_1.0" type="type2" depart="3600.00" departLane="best">
        <route edges="in_wilhelmN 335462921#3 -505526660#2 out_leipzigerstr"/>
    </vehicle>
    <vehicle id="Truck036_KP1_2.0" type="type2" depart="3600.00" departLane="best">
        <route edges="in_leipzigerstr 505526660#0 KP12_1 KP12_2 KP23_1 KP23_2 KP34_1 KP34_2 KP45_1 KP45_2 KP56_1 KP56_2 25945760#0 out_jerusalemer"/>
    </vehicle>
    <vehicle id="Truck036_KP1_3.0" type="type2" depart="3600.00" departLane="best">
        <route edges="in_wilhelmS -25042806#1 -707107510#2 -335462921#5 out_wilhelmN"/>
    </vehicle>
    <vehicle id="Truck036_KP2_1.0" type="type2" depart="3600.00" departLane="best">
        <route edges="in_mauerN out_mauerS"/>
    </vehicle>
    <vehicle id="Truck036_KP2_3.0" type="type2" depart="3600.00" departLane="best">
        <route edges="in_mauerS out_mauerN"/>
    </vehicle>
    <vehicle id="Truck036_KP3_1.0" type="type2" depart="3600.00" departLane="best">
        <route edges="in_friedrichN 199847247#0 199847247#1 -81113584#2 199847241#0 199847241#1 out_friedrichS"/>
    </vehicle>
    <vehicle id="Truck036_KP3_3.0" type="type2" depart="3600.00" departLane="best">
        <route edges="in_friedrichS 199847244#1 199847244#3 81113584#0 199847252#1 199847252#2 out_friedrichN"/>
    </vehicle>
    <vehicle id="Truck036_KP4_1.0" type="type2" depart="3600.00" departLane="best">
        <route edges="in_charlottenN 22972469#0 out_charlottenS"/>
    </vehicle>
    <vehicle id="Truck036_KP4_3.0" type="type2" depart="3600.00" departLane="best">
        <route edges="in_charlottenS -22972469#2 out_charlottenN"/>
    </vehicle>
    <vehicle id="Truck036_KP5_1.0" type="type2" depart="3600.00" departLane="best">
        <route edges="in_markgrafenN 375311158#1 KP56_1 KP56_2 25945760#0 out_jerusalemer"/>
    </vehicle>
    <vehicle id="Truck036_KP6_3.0" type="type2" depart="3600.00" departLane="best">
        <route edges="in_jerusalemer -25945760#0 KP67_1 KP67_2 KP67_3 gneE7 4773464#0 out_spittelmarkt"/>
    </vehicle>
    <vehicle id="Truck036_KP7_3.0" type="type2" depart="3600.00" departLane="best">
        <route edges="in_axel 71143837 24214231#0 108488061#1 gneE16 gneE7 4773464#0 out_spittelmarkt"/>
    </vehicle>
    <vehicle id="Truck036_KP7_4.0" type="type2" depart="3600.00" departLane="best">
        <route edges="in_spittelmarkt 120359703 4611722#0 gneE8 gneE10 42747981#3 66071390#2 -71143837 out_axel"/>
    </vehicle>
    <vehicle id="Truck036_KP7_4.1" type="type2" depart="3667.93" departLane="best">
        <route edges="in_spittelmarkt 120359703 4611722#0 gneE8 gneE10 42747981#3 66071390#2 -71143837 out_axel"/>
    </vehicle>
    <vehicle id="Truck036_KP1_2.1" type="type2" depart="3692.31" departLane="best">
        <route edges="in_leipzigerstr 505526660#0 KP12_1 KP12_2 out_mauerS"/>
    </vehicle>
    <vehicle id="Truck036_KP7_4.2" type="type2" depart="3735.85" departLane="best">
        <route edges="in_spittelmarkt 120359703 4611722#0 gneE8 KP76_1 KP65_1 KP65_2 KP65_3 KP54_1 KP54_2 KP43_1 KP43_2 KP32_1 KP32_2 KP21_1 KP21_2 -505526660#2 out_leipzigerstr"/>
    </vehicle>
    <vehicle id="Truck036_KP1_2.2" type="type2" depart="3784.62" departLane="best">
        <route edges="in_leipzigerstr 505526660#0 KP12_1 KP12_2 KP23_1 KP23_2 KP34_1 KP34_2 KP45_1 KP45_2 KP56_1 KP56_2 KP67_1 KP67_2 KP67_3 gneE7 4773464#0 out_spittelmarkt"/>
    </vehicle>
    <vehicle id="Truck036_KP1_3.1" type="type2" depart="3800.00" departLane="best">
        <route edges="in_wilhelmS -25042806#1 -707107510#2 -335462921#5 out_wilhelmN"/>
    </vehicle>
    <vehicle id="Truck036_KP7_4.3" type="type2" depart="3803.78" departLane="best">
        <route edges="in_spittelmarkt 120359703 4611722#0 gneE8 KP76_1 KP65_1 KP65_2 KP65_3 KP54_1 KP54_2 KP43_1 KP43_2 KP32_1 KP32_2 out_mauerN"/>
    </vehicle>
    <vehicle id="Truck036_KP7_3.1" type="type2" depart="3825.00" departLane="best">
        <route edges="in_axel 71143837 24214231#0 108488061#1 gneE16 gneE7 4773464#0 out_spittelmarkt"/>
    </vehicle>
    <vehicle id="Truck036_KP7_4.4" type="type2" depart="3871.70" departLane="best">
        <route edges="in_spittelmarkt 120359703 4611722#0 gneE8 KP76_1 KP65_1 KP65_2 KP65_3 KP54_1 KP54_2 KP43_1 KP43_2 KP32_1 KP32_2 KP21_1 KP21_2 -505526660#2 out_leipzigerstr"/>
    </vehicle>
    <vehicle id="Truck036_KP1_2.3" type="type2" depart="3876.92" departLane="best">
        <route edges="in_leipzigerstr 505526660#0 KP12_1 KP12_2 KP23_1 KP23_2 KP34_1 KP34_2 KP45_1 KP45_2 KP56_1 KP56_2 KP67_1 KP67_2 KP67_3 gneE10 42747981#3 66071390#2 -71143837 out_axel"/>
    </vehicle>
    <vehicle id="Truck036_KP7_4.5" type="type2" depart="3939.63" departLane="best">
        <route edges="in_spittelmarkt 120359703 4611722#0 gneE8 gneE10 42747981#3 66071390#2 -71143837 out_axel"/>
    </vehicle>
    <vehicle id="Truck036_KP1_2.4" type="type2" depart="3969.23" departLane="best">
        <route edges="in_leipzigerstr 505526660#0 KP12_1 KP12_2 out_mauerN"/>
    </vehicle>
    <vehicle id="Truck036_KP1_3.2" type="type2" depart="4000.00" departLane="best">
        <route edges="in_wilhelmS -25042806#1 -707107510#2 KP12_1 KP12_2 KP23_1 KP23_2 KP34_1 KP34_2 KP45_1 KP45_2 KP56_1 KP56_2 25945760#0 out_jerusalemer"/>
    </vehicle>
    <vehicle id="Truck036_KP7_4.6" type="type2" depart="4007.55" departLane="best">
        <route edges="in_spittelmarkt 120359703 4611722#0 gneE8 KP76_1 KP65_1 KP65_2 KP65_3 KP54_1 KP54_2 KP43_1 KP43_2 KP32_1 KP32_2 KP21_1 KP21_2 -505526660#2 out_leipzigerstr"/>
    </vehicle>
    <vehicle id="Truck036_KP3_1.1" type="type2" depart="4050.00" departLane="best">
        <route edges="in_friedrichN 199847247#0 199847247#1 KP32_1 KP32_2 KP21_1 KP21_2 -505526660#2 out_leipzigerstr"/>
    </vehicle>
    <vehicle id="Truck036_KP3_3.1" type="type2" depart="4050.00" departLane="best">
        <route edges="in_friedrichS 199847244#1 199847244#3 81113584#0 199847252#1 199847252#2 out_friedrichN"/>
    </vehicle>
    <vehicle id="Truck036_KP7_3.2" type="type2" depart="4050.00" departLane="best">
        <route edges="in_axel 71143837 24214231#0 108488061#1 gneE16 gneE7 4773464#0 out_spittelmarkt"/>
    </vehicle>
    <vehicle id="Truck036_KP1_2.5" type="type2" depart="4061.54" departLane="best">
        <route edges="in_leipzigerstr 505526660#0 KP12_1 KP12_2 KP23_1 KP23_2 KP34_1 KP34_2 KP45_1 KP45_2 KP56_1 KP56_2 25945760#0 out_jerusalemer"/>
    </vehicle>
    <vehicle id="Truck036_KP7_4.7" type="type2" depart="4075.48" departLane="best">
        <route edges="in_spittelmarkt 120359703 4611722#0 gneE8 KP76_1 KP65_1 KP65_2 KP65_3 KP54_1 KP54_2 KP43_1 KP43_2 KP32_1 KP32_2 KP21_1 KP21_2 -505526660#2 out_leipzigerstr"/>
    </vehicle>
    <vehicle id="Truck036_KP1_1.1" type="type2" depart="4114.29" departLane="best">
        <route edges="in_wilhelmN 335462921#3 KP12_1 KP12_2 KP23_1 KP23_2 199847252#1 199847252#2 out_friedrichN"/>
    </vehicle>
    <vehicle id="Truck036_KP7_4.8" type="type2" depart="4143.40" departLane="best">
        <route edges="in_spittelmarkt 120359703 4611722#0 gneE8 KP76_1 KP65_1 KP65_2 KP65_3 KP54_1 KP54_2 KP43_1 KP43_2 KP32_1 KP32_2 KP21_1 KP21_2 -505526660#2 out_leipzigerstr"/>
    </vehicle>
    <vehicle id="Truck036_KP1_2.6" type="type2" depart="4153.85" departLane="best">
        <route edges="in_leipzigerstr 505526660#0 KP12_1 KP12_2 KP23_1 KP23_2 KP34_1 KP34_2 KP45_1 KP45_2 KP56_1 KP56_2 KP67_1 KP67_2 KP67_3 gneE7 4773464#0 out_spittelmarkt"/>
    </vehicle>
    <vehicle id="Truck036_KP1_3.3" type="type2" depart="4200.00" departLane="best">
        <route edges="in_wilhelmS -25042806#1 -707107510#2 KP12_1 KP12_2 KP23_1 KP23_2 KP34_1 KP34_2 KP45_1 KP45_2 KP56_1 KP56_2 KP67_1 KP67_2 KP67_3 gneE7 4773464#0 out_spittelmarkt"/>
    </vehicle>
    <vehicle id="Truck036_KP7_4.9" type="type2" depart="4211.33" departLane="best">
        <route edges="in_spittelmarkt 120359703 4611722#0 gneE8 KP76_1 KP65_1 KP65_2 KP65_3 KP54_1 KP54_2 KP43_1 KP43_2 KP32_1 KP32_2 KP21_1 KP21_2 -505526660#2 out_leipzigerstr"/>
    </vehicle>
    <vehicle id="Truck036_KP1_2.7" type="type2" depart="4246.16" departLane="best">
        <route edges="in_leipzigerstr 505526660#0 KP12_1 KP12_2 KP23_1 KP23_2 KP34_1 KP34_2 KP45_1 KP45_2 KP56_1 KP56_2 KP67_1 KP67_2 KP67_3 gneE7 4773464#0 out_spittelmarkt"/>
    </vehicle>
    <vehicle id="Truck036_KP7_3.3" type="type2" depart="4275.00" departLane="best">
        <route edges="in_axel 71143837 24214231#0 108488061#1 gneE16 gneE7 4773464#0 out_spittelmarkt"/>
    </vehicle>
    <vehicle id="Truck036_KP7_4.10" type="type2" depart="4279.25" departLane="best">
        <route edges="in_spittelmarkt 120359703 4611722#0 gneE8 KP76_1 KP65_1 KP65_2 KP65_3 KP54_1 KP54_2 KP43_1 KP43_2 KP32_1 KP32_2 KP21_1 KP21_2 -505526660#2 out_leipzigerstr"/>
    </vehicle>
    <vehicle id="Truck036_KP1_2.8" type="type2" depart="4338.46" departLane="best">
        <route edges="in_leipzigerstr 505526660#0 KP12_1 KP12_2 KP23_1 KP23_2 KP34_1 KP34_2 KP45_1 KP45_2 KP56_1 KP56_2 KP67_1 KP67_2 KP67_3 gneE7 4773464#0 out_spittelmarkt"/>
    </vehicle>
    <vehicle id="Truck036_KP7_4.11" type="type2" depart="4347.18" departLane="best">
        <route edges="in_spittelmarkt 120359703 4611722#0 gneE8 gneE10 42747981#3 66071390#2 -71143837 out_axel"/>
    </vehicle>
    <vehicle id="Truck036_KP1_3.4" type="type2" depart="4400.00" departLane="best">
        <route edges="in_wilhelmS -25042806#1 -707107510#2 -335462921#5 out_wilhelmN"/>
    </vehicle>
    <vehicle id="Truck036_KP7_4.12" type="type2" depart="4415.10" departLane="best">
        <route edges="in_spittelmarkt 120359703 4611722#0 gneE8 KP76_1 KP65_1 KP65_2 KP65_3 KP54_1 KP54_2 KP43_1 KP43_2 KP32_1 KP32_2 KP21_1 KP21_2 -335462921#5 out_wilhelmN"/>
    </vehicle>
    <vehicle id="Truck036_KP1_2.9" type="type2" depart="4430.77" departLane="best">
        <route edges="in_leipzigerstr 505526660#0 KP12_1 KP12_2 KP23_1 KP23_2 -81113584#2 199847241#0 199847241#1 out_friedrichS"/>
    </vehicle>
    <vehicle id="Truck036_KP7_4.13" type="type2" depart="4483.03" departLane="best">
        <route edges="in_spittelmarkt 120359703 4611722#0 gneE8 KP76_1 KP65_1 KP65_2 KP65_3 KP54_1 KP54_2 KP43_1 KP43_2 KP32_1 KP32_2 KP21_1 KP21_2 -505526660#2 out_leipzigerstr"/>
    </vehicle>
    <vehicle id="Truck036_KP3_1.2" type="type2" depart="4500.00" departLane="best">
        <route edges="in_friedrichN 199847247#0 199847247#1 -81113584#2 199847241#0 199847241#1 out_friedrichS"/>
    </vehicle>
    <vehicle id="Truck036_KP3_3.2" type="type2" depart="4500.00" departLane="best">
        <route edges="in_friedrichS 199847244#1 199847244#3 81113584#0 KP34_1 KP34_2 KP45_1 KP45_2 KP56_1 KP56_2 KP67_1 KP67_2 KP67_3 gneE7 4773464#0 out_spittelmarkt"/>
    </vehicle>
    <vehicle id="Truck036_KP5_1.1" type="type2" depart="4500.00" departLane="best">
        <route edges="in_markgrafenN 375311158#1 KP56_1 KP56_2 KP67_1 KP67_2 KP67_3 gneE7 4773464#0 out_spittelmarkt"/>
    </vehicle>
    <vehicle id="Truck036_KP7_3.4" type="type2" depart="4500.00" departLane="best">
        <route edges="in_axel 71143837 24214231#0 108488061#1 gneE16 gneE7 4773464#0 out_spittelmarkt"/>
    </vehicle>
    <vehicle id="Truck036_KP1_2.10" type="type2" depart="4523.08" departLane="best">
        <route edges="in_leipzigerstr 505526660#0 KP12_1 KP12_2 KP23_1 KP23_2 KP34_1 KP34_2 KP45_1 KP45_2 KP56_1 KP56_2 KP67_1 KP67_2 KP67_3 gneE7 4773464#0 out_spittelmarkt"/>
    </vehicle>
    <vehicle id="Truck036_KP7_4.14" type="type2" depart="4550.95" departLane="best">
        <route edges="in_spittelmarkt 120359703 4611722#0 gneE8 KP76_1 KP65_1 KP65_2 KP65_3 KP54_1 KP54_2 KP43_1 KP43_2 KP32_1 KP32_2 KP21_1 KP21_2 -505526660#2 out_leipzigerstr"/>
    </vehicle>
    <vehicle id="Truck036_KP1_3.5" type="type2" depart="4600.00" departLane="best">
        <route edges="in_wilhelmS -25042806#1 -707107510#2 -335462921#5 out_wilhelmN"/>
    </vehicle>
    <vehicle id="Truck036_KP1_2.11" type="type2" depart="4615.39" departLane="best">
        <route edges="in_leipzigerstr 505526660#0 KP12_1 KP12_2 KP23_1 KP23_2 KP34_1 KP34_2 KP45_1 KP45_2 KP56_1 KP56_2 KP67_1 KP67_2 KP67_3 gneE7 4773464#0 out_spittelmarkt"/>
    </vehicle>
    <vehicle id="Truck036_KP7_4.15" type="type2" depart="4618.88" departLane="best">
        <route edges="in_spittelmarkt 120359703 4611722#0 gneE8 gneE10 42747981#3 66071390#2 -71143837 out_axel"/>
    </vehicle>
    <vehicle id="Truck036_KP1_1.2" type="type2" depart="4628.57" departLane="best">
        <route edges="in_wilhelmN 335462921#3 707107510#0 25042806#1 out_wilhelmS"/>
    </vehicle>
    <vehicle id="Truck036_KP7_4.16" type="type2" depart="4686.80" departLane="best">
        <route edges="in_spittelmarkt 120359703 4611722#0 gneE8 KP76_1 KP65_1 KP65_2 KP65_3 KP54_1 KP54_2 KP43_1 KP43_2 KP32_1 KP32_2 KP21_1 KP21_2 -505526660#2 out_leipzigerstr"/>
    </vehicle>
    <vehicle id="Truck036_KP1_2.12" type="type2" depart="4707.70" departLane="best">
        <route edges="in_leipzigerstr 505526660#0 KP12_1 KP12_2 KP23_1 KP23_2 KP34_1 KP34_2 KP45_1 KP45_2 KP56_1 KP56_2 KP67_1 KP67_2 KP67_3 gneE7 4773464#0 out_spittelmarkt"/>
    </vehicle>
    <vehicle id="Truck036_KP7_3.5" type="type2" depart="4725.00" departLane="best">
        <route edges="in_axel 71143837 24214231#0 108488061#1 gneE16 gneE7 4773464#0 out_spittelmarkt"/>
    </vehicle>
    <vehicle id="Truck036_KP7_4.17" type="type2" depart="4754.73" departLane="best">
        <route edges="in_spittelmarkt 120359703 4611722#0 gneE8 KP76_1 KP65_1 KP65_2 KP65_3 KP54_1 KP54_2 KP43_1 KP43_2 KP32_1 KP32_2 KP21_1 KP21_2 -505526660#2 out_leipzigerstr"/>
    </vehicle>
    <vehicle id="Truck036_KP1_3.6" type="type2" depart="4800.00" departLane="best">
        <route edges="in_wilhelmS -25042806#1 -707107510#2 -335462921#5 out_wilhelmN"/>
    </vehicle>
    <vehicle id="Truck036_KP2_3.1" type="type2" depart="4800.00" departLane="best">
        <route edges="in_mauerS KP21_1 KP21_2 -505526660#2 out_leipzigerstr"/>
    </vehicle>
    <vehicle id="Truck036_KP1_2.13" type="type2" depart="4800.00" departLane="best">
        <route edges="in_leipzigerstr 505526660#0 KP12_1 KP12_2 KP23_1 KP23_2 KP34_1 KP34_2 KP45_1 KP45_2 KP56_1 KP56_2 KP67_1 KP67_2 KP67_3 gneE7 4773464#0 out_spittelmarkt"/>
    </vehicle>
    <vehicle id="Truck036_KP7_4.18" type="type2" depart="4822.65" departLane="best">
        <route edges="in_spittelmarkt 120359703 4611722#0 gneE8 gneE10 42747981#3 66071390#2 -71143837 out_axel"/>
    </vehicle>
    <vehicle id="Truck036_KP7_4.19" type="type2" depart="4890.58" departLane="best">
        <route edges="in_spittelmarkt 120359703 4611722#0 gneE8 gneE10 42747981#3 66071390#2 -71143837 out_axel"/>
    </vehicle>
    <vehicle id="Truck036_KP1_2.14" type="type2" depart="4892.31" departLane="best">
        <route edges="in_leipzigerstr 505526660#0 KP12_1 KP12_2 KP23_1 KP23_2 KP34_1 KP34_2 KP45_1 KP45_2 -375311158#2 out_markgrafenN"/>
    </vehicle>
    <vehicle id="Truck036_KP3_1.3" type="type2" depart="4950.00" departLane="best">
        <route edges="in_friedrichN 199847247#0 199847247#1 -81113584#2 199847241#0 199847241#1 out_friedrichS"/>
    </vehicle>
    <vehicle id="Truck036_KP3_3.3" type="type2" depart="4950.00" departLane="best">
        <route edges="in_friedrichS 199847244#1 199847244#3 81113584#0 KP34_1 KP34_2 KP45_1 KP45_2 KP56_1 KP56_2 25945760#0 out_jerusalemer"/>
    </vehicle>
    <vehicle id="Truck036_KP7_3.6" type="type2" depart="4950.00" departLane="best">
        <route edges="in_axel 71143837 24214231#0 108488061#1 gneE16 gneE7 4773464#0 out_spittelmarkt"/>
    </vehicle>
    <vehicle id="Truck036_KP7_4.20" type="type2" depart="4958.50" departLane="best">
        <route edges="in_spittelmarkt 120359703 4611722#0 gneE8 gneE10 42747981#3 66071390#2 -71143837 out_axel"/>
    </vehicle>
    <vehicle id="Truck036_KP1_2.15" type="type2" depart="4984.62" departLane="best">
        <route edges="in_leipzigerstr 505526660#0 KP12_1 KP12_2 KP23_1 KP23_2 KP34_1 KP34_2 KP45_1 KP45_2 KP56_1 KP56_2 25945760#0 out_jerusalemer"/>
    </vehicle>
    <vehicle id="Truck036_KP1_3.7" type="type2" depart="5000.00" departLane="best">
        <route edges="in_wilhelmS -25042806#1 -707107510#2 -335462921#5 out_wilhelmN"/>
    </vehicle>
    <vehicle id="Truck036_KP7_4.21" type="type2" depart="5026.43" departLane="best">
        <route edges="in_spittelmarkt 120359703 4611722#0 gneE8 KP76_1 KP65_1 KP65_2 KP65_3 KP54_1 KP54_2 KP43_1 KP43_2 KP32_1 KP32_2 KP21_1 KP21_2 -505526660#2 out_leipzigerstr"/>
    </vehicle>
    <vehicle id="Truck036_KP1_2.16" type="type2" depart="5076.93" departLane="best">
        <route edges="in_leipzigerstr 505526660#0 KP12_1 KP12_2 KP23_1 KP23_2 KP34_1 KP34_2 KP45_1 KP45_2 KP56_1 KP56_2 KP67_1 KP67_2 KP67_3 gneE7 4773464#0 out_spittelmarkt"/>
    </vehicle>
    <vehicle id="Truck036_KP7_4.22" type="type2" depart="5094.35" departLane="best">
        <route edges="in_spittelmarkt 120359703 4611722#0 gneE8 KP76_1 KP65_1 KP65_2 KP65_3 KP54_1 KP54_2 KP43_1 KP43_2 KP32_1 KP32_2 KP21_1 KP21_2 -505526660#2 out_leipzigerstr"/>
    </vehicle>
    <vehicle id="Truck036_KP1_1.3" type="type2" depart="5142.86" departLane="best">
        <route edges="in_wilhelmN 335462921#3 707107510#0 25042806#1 out_wilhelmS"/>
    </vehicle>
    <vehicle id="Truck036_KP7_4.23" type="type2" depart="5162.28" departLane="best">
        <route edges="in_spittelmarkt 120359703 4611722#0 gneE8 KP76_1 KP65_1 KP65_2 KP65_3 KP54_1 KP54_2 KP43_1 KP43_2 KP32_1 KP32_2 KP21_1 KP21_2 -505526660#2 out_leipzigerstr"/>
    </vehicle>
    <vehicle id="Truck036_KP1_2.17" type="type2" depart="5169.24" departLane="best">
        <route edges="in_leipzigerstr 505526660#0 KP12_1 KP12_2 KP23_1 KP23_2 KP34_1 KP34_2 KP45_1 KP45_2 KP56_1 KP56_2 KP67_1 KP67_2 KP67_3 gneE7 4773464#0 out_spittelmarkt"/>
    </vehicle>
    <vehicle id="Truck036_KP7_3.7" type="type2" depart="5175.00" departLane="best">
        <route edges="in_axel 71143837 24214231#0 108488061#1 gneE16 gneE7 4773464#0 out_spittelmarkt"/>
    </vehicle>
    <vehicle id="Truck036_KP1_3.8" type="type2" depart="5200.00" departLane="best">
        <route edges="in_wilhelmS -25042806#1 -707107510#2 -335462921#5 out_wilhelmN"/>
    </vehicle>
    <vehicle id="Truck036_KP7_4.24" type="type2" depart="5230.20" departLane="best">
        <route edges="in_spittelmarkt 120359703 4611722#0 gneE8 gneE10 42747981#3 66071390#2 -71143837 out_axel"/>
    </vehicle>
    <vehicle id="Truck036_KP1_2.18" type="type2" depart="5261.54" departLane="best">
        <route edges="in_leipzigerstr 505526660#0 KP12_1 KP12_2 KP23_1 KP23_2 KP34_1 KP34_2 KP45_1 KP45_2 -375311158#2 out_markgrafenN"/>
    </vehicle>
    <vehicle id="Truck036_KP7_4.25" type="type2" depart="5298.13" departLane="best">
        <route edges="in_spittelmarkt 120359703 4611722#0 gneE8 KP76_1 KP65_1 KP65_2 KP65_3 KP54_1 KP54_2 KP43_1 KP43_2 KP32_1 KP32_2 KP21_1 KP21_2 -505526660#2 out_leipzigerstr"/>
    </vehicle>
    <vehicle id="Truck036_KP1_2.19" type="type2" depart="5353.85" departLane="best">
        <route edges="in_leipzigerstr 505526660#0 KP12_1 KP12_2 KP23_1 KP23_2 -81113584#2 199847241#0 199847241#1 out_friedrichS"/>
    </vehicle>
    <vehicle id="Truck036_KP7_4.26" type="type2" depart="5366.05" departLane="best">
        <route edges="in_spittelmarkt 120359703 4611722#0 gneE8 gneE10 42747981#3 66071390#2 -71143837 out_axel"/>
    </vehicle>
    <vehicle id="Truck036_KP1_3.9" type="type2" depart="5400.00" departLane="best">
        <route edges="in_wilhelmS -25042806#1 -707107510#2 KP12_1 KP12_2 KP23_1 KP23_2 KP34_1 KP34_2 KP45_1 KP45_2 KP56_1 KP56_2 KP67_1 KP67_2 KP67_3 gneE7 4773464#0 out_spittelmarkt"/>
    </vehicle>
    <vehicle id="Truck036_KP3_1.4" type="type2" depart="5400.00" departLane="best">
        <route edges="in_friedrichN 199847247#0 199847247#1 -81113584#2 199847241#0 199847241#1 out_friedrichS"/>
    </vehicle>
    <vehicle id="Truck036_KP3_3.4" type="type2" depart="5400.00" departLane="best">