<?xml version="1.0" encoding="UTF-8"?>

<additional xmlns:xsi="http://www.w3.org/2001/XMLSchema-instance" xsi:noNamespaceSchemaLocation="http://sumo.dlr.de/xsd/additional_file.xsd">
   	<tlLogic id="KP1" type="static" programID="Fruh" offset="0">
	 <phase duration="1" state="rrrrruuuuuurrrrrruuuuu"/>
	 <phase duration="17" state="rrrrrGGGGGgrrrrrrGGGGg"/>
	 <phase duration="3" state="rrrrryyyyyyrrrrrryyyyy"/>
	 <phase duration="7" state="rrrrrrrrrrrrrrrrrrrrrr"/>
	 <phase duration="2" state="uuuuurrrrrruuuuuurrrrr"/>
	 <phase duration="36" state="GGGGgrrrrrrGGGGGgrrrrr"/>
	 <phase duration="3" state="GGGGgrrrrrryyyyyyrrrrr"/>
	 <phase duration="8" state="GGGGgrrrrrrrrrrrrrrrrr"/>
	 <phase duration="3" state="yyyyyrrrrrrrrrrrrrrrrr"/>
	 <phase duration="9" state="rrrrrrrrrrrrrrrrrrrrrr"/>
	 <phase duration="1" state="rrrrruuuuuurrrrrruuuuu"/>
	</tlLogic>
	<tlLogic id="KP1" type="static" programID="Spat" offset="0">
	 <phase duration="5" state="rrrrrGGGGGgrrrrrrGGGGg"/>
	 <phase duration="3" state="rrrrryyyyyyrrrrrryyyyy"/>
	 <phase duration="7" state="rrrrrrrrrrrrrrrrrrrrrr"/>
	 <phase duration="2" state="uuuuurrrrrruuuuuurrrrr"/>
	 <phase duration="42" state="GGGGgrrrrrrGGGGGgrrrrr"/>
	 <phase duration="3" state="GGGGgrrrrrryyyyyyrrrrr"/>
	 <phase duration="3" state="GGGGgrrrrrrrrrrrrrrrrr"/>
	 <phase duration="3" state="yyyyyrrrrrrrrrrrrrrrrr"/>
	 <phase duration="8" state="rrrrrrrrrrrrrrrrrrrrrr"/>
	 <phase duration="2" state="rrrrruuuuuurrrrrruuuuu"/>
	 <phase duration="12" state="rrrrrGGGGGgrrrrrrGGGGg"/>
	</tlLogic>
	<tlLogic id="KP1" type="static" programID="Tag" offset="0">
	 <phase duration="1" state="rrrrrGGGGGgrrrrrrGGGGg"/>
	 <phase duration="3" state="rrrrryyyyyyrrrrrryyyyy"/>
	 <phase duration="7" state="rrrrrrrrrrrrrrrrrrrrrr"/>
	 <phase duration="2" state="uuuuurrrrrruuuuuurrrrr"/>
	 <phase duration="42" state="GGGGgrrrrrrGGGGGgrrrrr"/>
	 <phase duration="3" state="GGGGgrrrrrryyyyyyrrrrr"/>
	 <phase duration="3" state="GGGGgrrrrrrrrrrrrrrrrr"/>
	 <phase duration="3" state="yyyyyrrrrrrrrrrrrrrrrr"/>
	 <phase duration="8" state="rrrrrrrrrrrrrrrrrrrrrr"/>
	 <phase duration="2" state="rrrrruuuuuurrrrrruuuuu"/>
	 <phase duration="16" state="rrrrrGGGGGgrrrrrrGGGGg"/>
	</tlLogic>
	<tlLogic id="KP2" type="static" programID="Fruh" offset="0">
	 <phase duration="15" state="rrrGGGgrrrrrrGGg"/>
	 <phase duration="3" state="rrryyyyrrrrrryyy"/>
	 <phase duration="6" state="rrrrrrrrrrrrrrrr"/>
	 <phase duration="2" state="uuurrrruuuuuurrr"/>
	 <phase duration="45" state="GGGrrrrGGGGGgrrr"/>
	 <phase duration="3" state="yyyrrrrGGGGGgrrr"/>
	 <phase duration="3" state="rrrrrrrGGGGGgrrr"/>
	 <phase duration="3" state="rrrrrrryyyyyyrrr"/>
	 <phase duration="5" state="rrrrrrrrrrrrrrrr"/>
	 <phase duration="2" state="rrruuuurrrrrruuu"/>
	 <phase duration="3" state="rrrGGGgrrrrrrGGg"/>
	</tlLogic>
	<tlLogic id="KP2" type="static" programID="Spat" offset="0">
	 <phase duration="2" state="rrryyyyrrrrrryyy"/>
	 <phase duration="6" state="rrrrrrrrrrrrrrrr"/>
	 <phase duration="2" state="uuurrrruuuuuurrr"/>
	 <phase duration="48" state="GGGrrrrGGGGGgrrr"/>
	 <phase duration="3" state="yyyrrrrGGGGGgrrr"/>
	 <phase duration="3" state="rrrrrrryyyyyyrrr"/>
	 <phase duration="5" state="rrrrrrrrrrrrrrrr"/>
	 <phase duration="2" state="rrruuuurrrrrruuu"/>
	 <phase duration="18" state="rrrGGGgrrrrrrGGg"/>
	 <phase duration="1" state="rrryyyyrrrrrryyy"/>
	</tlLogic>
	<tlLogic id="KP2" type="static" programID="Tag" offset="0">
	 <phase duration="1" state="rrrrrrrrrrrrrrrr"/>
	 <phase duration="2" state="uuurrrruuuuuurrr"/>
	 <phase duration="48" state="GGGrrrrGGGGGgrrr"/>
	 <phase duration="3" state="yyyrrrrGGGGGgrrr"/>
	 <phase duration="3" state="rrrrrrryyyyyyrrr"/>
	 <phase duration="5" state="rrrrrrrrrrrrrrrr"/>
	 <phase duration="2" state="rrruuuurrrrrruuu"/>
	 <phase duration="18" state="rrrGGGgrrrrrrGGg"/>
	 <phase duration="3" state="rrryyyyrrrrrryyy"/>
	 <phase duration="5" state="rrrrrrrrrrrrrrrr"/>
	</tlLogic>
	<tlLogic id="KP3" type="static" programID="Fruh" offset="0">
	 <phase duration="8" state="rrrrGGgrrrrGGg"/>
	 <phase duration="3" state="rrrryyyrrrrGGg"/>
	 <phase duration="2" state="rrrrrrrrrrrGGg"/>
	 <phase duration="3" state="rrrrrrrrrrryyy"/>
	 <phase duration="5" state="rrrrrrrrrrrrrr"/>
	 <phase duration="2" state="uuuurrruuuurrr"/>
	 <phase duration="40" state="GGGgrrrGGGgrrr"/>
	 <phase duration="3" state="GGGgrrryyyyrrr"/>
	 <phase duration="5" state="GGGgrrrrrrrrrr"/>
	 <phase duration="3" state="yyyyrrrrrrrrrr"/>
	 <phase duration="7" state="rrrrrrrrrrrrrr"/>
	 <phase duration="2" state="rrrruuurrrruuu"/>
	 <phase duration="7" state="rrrrGGgrrrrGGg"/>
	</tlLogic>
	<tlLogic id="KP3" type="static" programID="Spat" offset="0">
	 <phase duration="4" state="rrrrrrrrrrrrrr"/>
	 <phase duration="2" state="uuuurrruuuurrr"/>
	 <phase duration="49" state="GGGgrrrGGGgrrr"/>
	 <phase duration="3" state="yyyyrrryyyyrrr"/>
	 <phase duration="7" state="rrrrrrrrrrrrrr"/>
	 <phase duration="2" state="rrrruuurrrruuu"/>
	 <phase duration="19" state="rrrrGGgrrrrGGg"/>
	 <phase duration="3" state="rrrryyyrrrryyy"/>
	 <phase duration="1" state="rrrrrrrrrrrrrr"/>
	</tlLogic>
	<tlLogic id="KP3" type="static" programID="Tag" offset="0">
	 <phase duration="46" state="GGGgrrrGGGgrrr"/>
	 <phase duration="3" state="yyyyrrryyyyrrr"/>
	 <phase duration="7" state="rrrrrrrrrrrrrr"/>
	 <phase duration="2" state="rrrruuurrrruuu"/>
	 <phase duration="19" state="rrrrGGgrrrrGGg"/>
	 <phase duration="3" state="rrrryyyrrrryyy"/>
	 <phase duration="5" state="rrrrrrrrrrrrrr"/>
	 <phase duration="2" state="uuuurrruuuurrr"/>
	 <phase duration="3" state="GGGgrrrGGGgrrr"/>
	</tlLogic>
	<tlLogic id="KP4" type="static" programID="Fruh" offset="0">
	 <phase duration="10" state="rrrrGGgrrrrGGg"/>
	 <phase duration="3" state="rrrryyyrrrryyy"/>
	 <phase duration="6" state="rrrrrrrrrrrrrr"/>
	 <phase duration="2" state="uuuurrruuuurrr"/>
	 <phase duration="47" state="GGGgrrrGGGgrrr"/>
	 <phase duration="3" state="yyyyrrrGGGgrrr"/>
	 <phase duration="4" state="rrrrrrrGGGgrrr"/>
	 <phase duration="3" state="rrrrrrryyyyrrr"/>
	 <phase duration="5" state="rrrrrrrrrrrrrr"/>
	 <phase duration="2" state="rrrruuurrrruuu"/>
	 <phase duration="5" state="rrrrGGgrrrrGGg"/>
	</tlLogic>
	<tlLogic id="KP4" type="static" programID="Spat" offset="0">
	 <phase duration="1" state="uuuurrruuuurrr"/>
	 <phase duration="48" state="GGGgrrrGGGgrrr"/>
	 <phase duration="3" state="yyyyrrrGGGgrrr"/>
	 <phase duration="3" state="rrrrrrrGGGgrrr"/>
	 <phase duration="3" state="rrrrrrryyyyrrr"/>
	 <phase duration="5" state="rrrrrrrrrrrrrr"/>
	 <phase duration="2" state="rrrruuurrrruuu"/>
	 <phase duration="15" state="rrrrGGgrrrrGGg"/>
	 <phase duration="3" state="rrrryyyrrrryyy"/>
	 <phase duration="6" state="rrrrrrrrrrrrrr"/>
	 <phase duration="1" state="uuuurrruuuurrr"/>
	</tlLogic>
	<tlLogic id="KP4" type="static" programID="Tag" offset="0">
	 <phase duration="43" state="GGGgrrrGGGgrrr"/>
	 <phase duration="3" state="yyyyrrrGGGgrrr"/>
	 <phase duration="3" state="rrrrrrrGGGgrrr"/>
	 <phase duration="3" state="rrrrrrryyyyrrr"/>
	 <phase duration="5" state="rrrrrrrrrrrrrr"/>
	 <phase duration="2" state="rrrruuurrrruuu"/>
	 <phase duration="15" state="rrrrGGgrrrrGGg"/>
	 <phase duration="3" state="rrrryyyrrrryyy"/>
	 <phase duration="6" state="rrrrrrrrrrrrrr"/>
	 <phase duration="2" state="uuuurrruuuurrr"/>
	 <phase duration="5" state="GGGgrrrGGGgrrr"/>
	</tlLogic>
	<tlLogic id="KP5" type="static" programID="Fruh" offset="0">
	 <phase duration="11" state="rrrrrrrrGGG"/>
	 <phase duration="3" state="rrrrrrrryyy"/>
	 <phase duration="3" state="rrrrrrrrrrr"/>
	 <phase duration="2" state="uuuurrrrrrr"/>
	 <phase duration="2" state="GGGGuuuurrr"/>
	 <phase duration="44" state="GGGGGGGgrrr"/>
	 <phase duration="3" state="yyyyGGGgrrr"/>
	 <phase duration="8" state="rrrrGGGgrrr"/>
	 <phase duration="3" state="rrrryyyyrrr"/>
	 <phase duration="5" state="rrrrrrrrrrr"/>
	 <phase duration="3" state="rrrrrrrruuu"/>
	 <phase duration="3" state="rrrrrrrrGGG"/>
	</tlLogic>
	<tlLogic id="KP5" type="static" programID="Spat" offset="0">
	 <phase duration="41" state="GGGGGGGgrrr"/>
	 <phase duration="3" state="yyyyGGGgrrr"/>
	 <phase duration="11" state="rrrrGGGgrrr"/>
	 <phase duration="3" state="rrrryyyyrrr"/>
	 <phase duration="5" state="rrrrrrrrrrr"/>
	 <phase duration="3" state="rrrrrrrruuu"/>
	 <phase duration="14" state="rrrrrrrrGGG"/>
	 <phase duration="3" state="rrrrrrrryyy"/>
	 <phase duration="3" state="rrrrrrrrrrr"/>
	 <phase duration="2" state="uuuurrrrrrr"/>
	 <phase duration="2" state="GGGGuuuurrr"/>
	</tlLogic>
	<tlLogic id="KP5" type="static" programID="Tag" offset="0">
	 <phase duration="42" state="GGGGGGGgrrr"/>
	 <phase duration="3" state="yyyyGGGgrrr"/>
	 <phase duration="6" state="rrrrGGGgrrr"/>
	 <phase duration="3" state="rrrryyyyrrr"/>
	 <phase duration="7" state="rrrrrrrrrrr"/>
	 <phase duration="2" state="rrrrrrrruuu"/>
	 <phase duration="12" state="rrrrrrrrGGG"/>
	 <phase duration="3" state="rrrrrrrryyy"/>
	 <phase duration="3" state="rrrrrrrrrrr"/>
	 <phase duration="2" state="uuuurrrrrrr"/>
	 <phase duration="2" state="GGGGuuuurrr"/>
	 <phase duration="5" state="GGGGGGGgrrr"/>
	</tlLogic>
	<tlLogic id="KP7" type="static" programID="Fruh" offset="0">
	 <phase duration="8" state="GGGGGGGrGGrrrrrr"/>
	 <phase duration="3" state="GGGGyyGrGGrrrrrr"/>
	 <phase duration="4" state="GGGGrrGrGGrrrrrr"/>
	 <phase duration="3" state="GGGGrryryyrrrrrr"/>
	 <phase duration="1" state="GGGGrrrrrrrrrrrr"/>
	 <phase duration="1" state="GGGGrrrrrrruuuuu"/>
	 <phase duration="24" state="GGGGrrrrrrrGGGGG"/>
	 <phase duration="3" state="yyyyrrrrrrrGGGGG"/>
	 <phase duration="1" state="rrrrrrrrrrrGGGGG"/>
	 <phase duration="3" state="rrrrrrrrrrryyyyy"/>
	 <phase duration="2" state="rrrrrrrrrrrrrrrr"/>
	 <phase duration="1" state="rrrrrrrrrrurrrrr"/>
	 <phase duration="1" state="rrrrrrrrrrGrrrrr"/>
	 <phase duration="1" state="rrrrrrrurrGrrrrr"/>
	 <phase duration="5" state="rrrrrrrGrrGrrrrr"/>
	 <phase duration="2" state="rrrrrrryrrGrrrrr"/>
	 <phase duration="1" state="rrrrrrryrryrrrrr"/>
	 <phase duration="2" state="rrrrrrrrrryrrrrr"/>
	 <phase duration="4" state="rrrrrrrrrrrrrrrr"/>
	 <phase duration="1" state="rrrruurrrrrrrrrr"/>
	 <phase duration="5" state="rrrrGGrrrrrrrrrr"/>
	 <phase duration="1" state="rrrrGGurrrrrrrrr"/>
	 <phase duration="1" state="rrrrGGGruurrrrrr"/>
	 <phase duration="10" state="rrrrGGGrGGrrrrrr"/>
	 <phase duration="1" state="uuuuGGGrGGrrrrrr"/>
	 <phase duration="1" state="GGGGGGGrGGrrrrrr"/>
	</tlLogic>
	<tlLogic id="KP7" type="static" programID="Spat" offset="0">
	 <phase duration="4" state="rrrrrrrrrrrrrrrr"/>
	 <phase duration="1" state="rrrruurrrrrrrrrr"/>
	 <phase duration="5" state="rrrrGGrrrrrrrrrr"/>
	 <phase duration="1" state="rrrrGGurrrrrrrrr"/>
	 <phase duration="1" state="rrrrGGGruurrrrrr"/>
	 <phase duration="4" state="rrrrGGGrGGrrrrrr"/>
	 <phase duration="1" state="uuuuGGGrGGrrrrrr"/>
	 <phase duration="10" state="GGGGGGGrGGrrrrrr"/>
	 <phase duration="3" state="GGGGyyGrGGrrrrrr"/>
	 <phase duration="4" state="GGGGrrGrGGrrrrrr"/>
	 <phase duration="1" state="GGGGrrGryyrrrrrr"/>
	 <phase duration="2" state="GGGGrryryyrrrrrr"/>
	 <phase duration="1" state="GGGGrryrrrrrrrrr"/>
	 <phase duration="1" state="GGGGrrrrrrruuuuu"/>
	 <phase duration="29" state="GGGGrrrrrrrGGGGG"/>
	 <phase duration="3" state="yyyyrrrrrrrGGGGG"/>
	 <phase duration="1" state="rrrrrrrrrrrGGGGG"/>
	 <phase duration="3" state="rrrrrrrrrrryyyyy"/>
	 <phase duration="2" state="rrrrrrrrrrrrrrrr"/>
	 <phase duration="1" state="rrrrrrrrrrurrrrr"/>
	 <phase duration="1" state="rrrrrrrrrrGrrrrr"/>
	 <phase duration="1" state="rrrrrrrurrGrrrrr"/>
	 <phase duration="5" state="rrrrrrrGrrGrrrrr"/>
	 <phase duration="2" state="rrrrrrryrrGrrrrr"/>
	 <phase duration="1" state="rrrrrrryrryrrrrr"/>
	 <phase duration="2" state="rrrrrrrrrryrrrrr"/>
	</tlLogic>
	<tlLogic id="KP7" type="static" programID="Tag" offset="0">
	 <phase duration="2" state="rrrrrrryrrGrrrrr"/>
	 <phase duration="1" state="rrrrrrryrryrrrrr"/>
	 <phase duration="2" state="rrrrrrrrrryrrrrr"/>
	 <phase duration="4" state="rrrrrrrrrrrrrrrr"/>
	 <phase duration="1" state="rrrruurrrrrrrrrr"/>
	 <phase duration="4" state="rrrrGGrrrrrrrrrr"/>
	 <phase duration="1" state="rrrrGGurrrrrrrrr"/>
	 <phase duration="1" state="rrrrGGGruurrrrrr"/>
	 <phase duration="7" state="rrrrGGGrGGrrrrrr"/>
	 <phase duration="1" state="uuuuGGGrGGrrrrrr"/>
	 <phase duration="6" state="GGGGGGGrGGrrrrrr"/>
	 <phase duration="3" state="GGGGyyGrGGrrrrrr"/>
	 <phase duration="4" state="GGGGrrGrGGrrrrrr"/>
	 <phase duration="3" state="GGGGrryryyrrrrrr"/>
	 <phase duration="1" state="GGGGrrrrrrrrrrrr"/>
	 <phase duration="1" state="GGGGrrrrrrruuuuu"/>
	 <phase duration="31" state="GGGGrrrrrrrGGGGG"/>
	 <phase duration="3" state="yyyyrrrrrrrGGGGG"/>
	 <phase duration="1" state="rrrrrrrrrrrGGGGG"/>
	 <phase duration="3" state="rrrrrrrrrrryyyyy"/>
	 <phase duration="2" state="rrrrrrrrrrrrrrrr"/>
	 <phase duration="1" state="rrrrrrrrrrurrrrr"/>
	 <phase duration="1" state="rrrrrrrrrrGrrrrr"/>
	 <phase duration="1" state="rrrrrrrurrGrrrrr"/>
	 <phase duration="5" state="rrrrrrrGrrGrrrrr"/>
	</tlLogic>
	<WAUT startProg="Spat" refTime="0" id="waut">
	</WAUT>
	<wautJunction junctionID="KP1" wautID="waut"></wautJunction>
	<wautJunction junctionID="KP2" wautID="waut"></wautJunction>
	<wautJunction junctionID="KP3" wautID="waut"></wautJunction>
	<wautJunction junctionID="KP4" wautID="waut"></wautJunction>
	<wautJunction junctionID="KP5" wautID="waut"></wautJunction>
	<wautJunction junctionID="KP7" wautID="waut"></wautJunction>
</additional>
